
---------- Begin Simulation Statistics ----------
final_tick                                  299117000                       # Number of ticks from beginning of simulation (restored from checkpoints and never reset)
host_inst_rate                                  37577                       # Simulator instruction rate (inst/s)
host_mem_usage                                 838428                       # Number of bytes of host memory used
host_op_rate                                    37348                       # Simulator op (including micro ops) rate (op/s)
host_seconds                                     0.02                       # Real time elapsed on the host
host_tick_rate                               67831030                       # Simulator tick rate (ticks/s)
sim_freq                                 1000000000000                       # Frequency of simulated ticks
sim_insts                                         943                       # Number of instructions simulated
sim_ops                                           943                       # Number of ops (including micro ops) simulated
sim_seconds                                  0.000001                       # Number of seconds simulated
sim_ticks                                     1714000                       # Number of ticks simulated
system.clk_domain.clock                          1000                       # Clock period in ticks
system.cpu0.branchPred.BTBCorrect                   0                       # Number of correct BTB predictions (this stat may not work properly.
system.cpu0.branchPred.BTBHitPct            41.463414                       # BTB Hit Percentage
system.cpu0.branchPred.BTBHits                     17                       # Number of BTB hits
system.cpu0.branchPred.BTBLookups                  41                       # Number of BTB lookups
system.cpu0.branchPred.RASInCorrect                 0                       # Number of incorrect RAS predictions.
system.cpu0.branchPred.condIncorrect               16                       # Number of conditional branches incorrect
system.cpu0.branchPred.condPredicted               36                       # Number of conditional branches predicted
system.cpu0.branchPred.indirectHits                 0                       # Number of indirect target hits.
system.cpu0.branchPred.indirectLookups              6                       # Number of indirect predictor lookups.
system.cpu0.branchPred.indirectMisses               6                       # Number of indirect misses.
system.cpu0.branchPred.lookups                     58                       # Number of BP lookups
system.cpu0.branchPred.usedRAS                      0                       # Number of times the RAS was used to get a target.
system.cpu0.branchPredindirectMispredicted            2                       # Number of mispredicted indirect branches.
system.cpu0.commit.commit_stalls                    0                       # number of stalls in the commit stage due to insufficient credits
system.cpu0.cpi                              7.232067                       # CPI: Cycles Per Instruction
system.cpu0.cpi_total                        7.232067                       # CPI: Total CPI of All Threads
system.cpu0.dtb.accesses                            0                       # DTB accesses
system.cpu0.dtb.hits                                0                       # DTB hits
system.cpu0.dtb.misses                              0                       # DTB misses
system.cpu0.dtb.read_accesses                       0                       # DTB read accesses
system.cpu0.dtb.read_hits                           0                       # DTB read hits
system.cpu0.dtb.read_misses                         0                       # DTB read misses
system.cpu0.dtb.write_accesses                      0                       # DTB write accesses
system.cpu0.dtb.write_hits                          0                       # DTB write hits
system.cpu0.dtb.write_misses                        0                       # DTB write misses
system.cpu0.iew.dep_stall_insts_0::No_OpClass            0      0.00%      0.00% # Class of instruction blocked in Issue due to dependency
system.cpu0.iew.dep_stall_insts_0::IntAlu           79     26.07%     26.07% # Class of instruction blocked in Issue due to dependency
system.cpu0.iew.dep_stall_insts_0::IntMult          208     68.64%     94.71% # Class of instruction blocked in Issue due to dependency
system.cpu0.iew.dep_stall_insts_0::IntDiv            0      0.00%     94.71% # Class of instruction blocked in Issue due to dependency
system.cpu0.iew.dep_stall_insts_0::FloatAdd            0      0.00%     94.71% # Class of instruction blocked in Issue due to dependency
system.cpu0.iew.dep_stall_insts_0::FloatCmp            0      0.00%     94.71% # Class of instruction blocked in Issue due to dependency
system.cpu0.iew.dep_stall_insts_0::FloatCvt            0      0.00%     94.71% # Class of instruction blocked in Issue due to dependency
system.cpu0.iew.dep_stall_insts_0::FloatMult            0      0.00%     94.71% # Class of instruction blocked in Issue due to dependency
system.cpu0.iew.dep_stall_insts_0::FloatMultAcc            0      0.00%     94.71% # Class of instruction blocked in Issue due to dependency
system.cpu0.iew.dep_stall_insts_0::FloatDiv            0      0.00%     94.71% # Class of instruction blocked in Issue due to dependency
system.cpu0.iew.dep_stall_insts_0::FloatMisc            0      0.00%     94.71% # Class of instruction blocked in Issue due to dependency
system.cpu0.iew.dep_stall_insts_0::FloatSqrt            0      0.00%     94.71% # Class of instruction blocked in Issue due to dependency
system.cpu0.iew.dep_stall_insts_0::SimdAdd            0      0.00%     94.71% # Class of instruction blocked in Issue due to dependency
system.cpu0.iew.dep_stall_insts_0::SimdAddAcc            0      0.00%     94.71% # Class of instruction blocked in Issue due to dependency
system.cpu0.iew.dep_stall_insts_0::SimdAlu            0      0.00%     94.71% # Class of instruction blocked in Issue due to dependency
system.cpu0.iew.dep_stall_insts_0::SimdCmp            0      0.00%     94.71% # Class of instruction blocked in Issue due to dependency
system.cpu0.iew.dep_stall_insts_0::SimdCvt            0      0.00%     94.71% # Class of instruction blocked in Issue due to dependency
system.cpu0.iew.dep_stall_insts_0::SimdMisc            0      0.00%     94.71% # Class of instruction blocked in Issue due to dependency
system.cpu0.iew.dep_stall_insts_0::SimdMult            0      0.00%     94.71% # Class of instruction blocked in Issue due to dependency
system.cpu0.iew.dep_stall_insts_0::SimdMultAcc            0      0.00%     94.71% # Class of instruction blocked in Issue due to dependency
system.cpu0.iew.dep_stall_insts_0::SimdShift            0      0.00%     94.71% # Class of instruction blocked in Issue due to dependency
system.cpu0.iew.dep_stall_insts_0::SimdShiftAcc            0      0.00%     94.71% # Class of instruction blocked in Issue due to dependency
system.cpu0.iew.dep_stall_insts_0::SimdDiv            0      0.00%     94.71% # Class of instruction blocked in Issue due to dependency
system.cpu0.iew.dep_stall_insts_0::SimdSqrt            0      0.00%     94.71% # Class of instruction blocked in Issue due to dependency
system.cpu0.iew.dep_stall_insts_0::SimdFloatAdd            0      0.00%     94.71% # Class of instruction blocked in Issue due to dependency
system.cpu0.iew.dep_stall_insts_0::SimdFloatAlu            0      0.00%     94.71% # Class of instruction blocked in Issue due to dependency
system.cpu0.iew.dep_stall_insts_0::SimdFloatCmp            0      0.00%     94.71% # Class of instruction blocked in Issue due to dependency
system.cpu0.iew.dep_stall_insts_0::SimdFloatCvt            0      0.00%     94.71% # Class of instruction blocked in Issue due to dependency
system.cpu0.iew.dep_stall_insts_0::SimdFloatDiv            0      0.00%     94.71% # Class of instruction blocked in Issue due to dependency
system.cpu0.iew.dep_stall_insts_0::SimdFloatMisc            0      0.00%     94.71% # Class of instruction blocked in Issue due to dependency
system.cpu0.iew.dep_stall_insts_0::SimdFloatMult            0      0.00%     94.71% # Class of instruction blocked in Issue due to dependency
system.cpu0.iew.dep_stall_insts_0::SimdFloatMultAcc            0      0.00%     94.71% # Class of instruction blocked in Issue due to dependency
system.cpu0.iew.dep_stall_insts_0::SimdFloatSqrt            0      0.00%     94.71% # Class of instruction blocked in Issue due to dependency
system.cpu0.iew.dep_stall_insts_0::SimdReduceAdd            0      0.00%     94.71% # Class of instruction blocked in Issue due to dependency
system.cpu0.iew.dep_stall_insts_0::SimdReduceAlu            0      0.00%     94.71% # Class of instruction blocked in Issue due to dependency
system.cpu0.iew.dep_stall_insts_0::SimdReduceCmp            0      0.00%     94.71% # Class of instruction blocked in Issue due to dependency
system.cpu0.iew.dep_stall_insts_0::SimdFloatReduceAdd            0      0.00%     94.71% # Class of instruction blocked in Issue due to dependency
system.cpu0.iew.dep_stall_insts_0::SimdFloatReduceCmp            0      0.00%     94.71% # Class of instruction blocked in Issue due to dependency
system.cpu0.iew.dep_stall_insts_0::SimdAes            0      0.00%     94.71% # Class of instruction blocked in Issue due to dependency
system.cpu0.iew.dep_stall_insts_0::SimdAesMix            0      0.00%     94.71% # Class of instruction blocked in Issue due to dependency
system.cpu0.iew.dep_stall_insts_0::SimdSha1Hash            0      0.00%     94.71% # Class of instruction blocked in Issue due to dependency
system.cpu0.iew.dep_stall_insts_0::SimdSha1Hash2            0      0.00%     94.71% # Class of instruction blocked in Issue due to dependency
system.cpu0.iew.dep_stall_insts_0::SimdSha256Hash            0      0.00%     94.71% # Class of instruction blocked in Issue due to dependency
system.cpu0.iew.dep_stall_insts_0::SimdSha256Hash2            0      0.00%     94.71% # Class of instruction blocked in Issue due to dependency
system.cpu0.iew.dep_stall_insts_0::SimdShaSigma2            0      0.00%     94.71% # Class of instruction blocked in Issue due to dependency
system.cpu0.iew.dep_stall_insts_0::SimdShaSigma3            0      0.00%     94.71% # Class of instruction blocked in Issue due to dependency
system.cpu0.iew.dep_stall_insts_0::SimdPredAlu            0      0.00%     94.71% # Class of instruction blocked in Issue due to dependency
system.cpu0.iew.dep_stall_insts_0::MemRead            0      0.00%     94.71% # Class of instruction blocked in Issue due to dependency
system.cpu0.iew.dep_stall_insts_0::MemWrite           16      5.28%     99.99% # Class of instruction blocked in Issue due to dependency
system.cpu0.iew.dep_stall_insts_0::FloatMemRead            0      0.00%     99.99% # Class of instruction blocked in Issue due to dependency
system.cpu0.iew.dep_stall_insts_0::FloatMemWrite            0      0.00%     99.99% # Class of instruction blocked in Issue due to dependency
system.cpu0.iew.dep_stall_insts_0::IprAccess            0      0.00%     99.99% # Class of instruction blocked in Issue due to dependency
system.cpu0.iew.dep_stall_insts_0::InstPrefetch            0      0.00%     99.99% # Class of instruction blocked in Issue due to dependency
system.cpu0.iew.dep_stall_insts_0::total          303                       # Class of instruction blocked in Issue due to dependency
system.cpu0.iew.iew_stalls_control                 70                       # number of stalls in the iew stage due to stalling for control flow insts in pipeline
system.cpu0.iew.iew_stalls_dep                    303                       # number of stalls in the iew stage due to dependency
system.cpu0.iew.iew_stalls_execbusy                55                       # number of stalls in the iew stage due to exec stage being busy
system.cpu0.iew.iew_stalls_membarrier               0                       # number of stalls in the iew stage due to pending mem barrier
system.cpu0.iew.iew_stalls_revec                    1                       # number of stalls in the iew stage due to stalling for revec in pipeline
system.cpu0.iew.rob_head_stall_class_0::No_OpClass            0      0.00%      0.00% # Class of instruction blocking at head of ROB
system.cpu0.iew.rob_head_stall_class_0::IntAlu            0      0.00%      0.00% # Class of instruction blocking at head of ROB
system.cpu0.iew.rob_head_stall_class_0::IntMult            0      0.00%      0.00% # Class of instruction blocking at head of ROB
system.cpu0.iew.rob_head_stall_class_0::IntDiv            0      0.00%      0.00% # Class of instruction blocking at head of ROB
system.cpu0.iew.rob_head_stall_class_0::FloatAdd            0      0.00%      0.00% # Class of instruction blocking at head of ROB
system.cpu0.iew.rob_head_stall_class_0::FloatCmp            0      0.00%      0.00% # Class of instruction blocking at head of ROB
system.cpu0.iew.rob_head_stall_class_0::FloatCvt            0      0.00%      0.00% # Class of instruction blocking at head of ROB
system.cpu0.iew.rob_head_stall_class_0::FloatMult            0      0.00%      0.00% # Class of instruction blocking at head of ROB
system.cpu0.iew.rob_head_stall_class_0::FloatMultAcc            0      0.00%      0.00% # Class of instruction blocking at head of ROB
system.cpu0.iew.rob_head_stall_class_0::FloatDiv            0      0.00%      0.00% # Class of instruction blocking at head of ROB
system.cpu0.iew.rob_head_stall_class_0::FloatMisc            0      0.00%      0.00% # Class of instruction blocking at head of ROB
system.cpu0.iew.rob_head_stall_class_0::FloatSqrt            0      0.00%      0.00% # Class of instruction blocking at head of ROB
system.cpu0.iew.rob_head_stall_class_0::SimdAdd            0      0.00%      0.00% # Class of instruction blocking at head of ROB
system.cpu0.iew.rob_head_stall_class_0::SimdAddAcc            0      0.00%      0.00% # Class of instruction blocking at head of ROB
system.cpu0.iew.rob_head_stall_class_0::SimdAlu            0      0.00%      0.00% # Class of instruction blocking at head of ROB
system.cpu0.iew.rob_head_stall_class_0::SimdCmp            0      0.00%      0.00% # Class of instruction blocking at head of ROB
system.cpu0.iew.rob_head_stall_class_0::SimdCvt            0      0.00%      0.00% # Class of instruction blocking at head of ROB
system.cpu0.iew.rob_head_stall_class_0::SimdMisc            0      0.00%      0.00% # Class of instruction blocking at head of ROB
system.cpu0.iew.rob_head_stall_class_0::SimdMult            0      0.00%      0.00% # Class of instruction blocking at head of ROB
system.cpu0.iew.rob_head_stall_class_0::SimdMultAcc            0      0.00%      0.00% # Class of instruction blocking at head of ROB
system.cpu0.iew.rob_head_stall_class_0::SimdShift            0      0.00%      0.00% # Class of instruction blocking at head of ROB
system.cpu0.iew.rob_head_stall_class_0::SimdShiftAcc            0      0.00%      0.00% # Class of instruction blocking at head of ROB
system.cpu0.iew.rob_head_stall_class_0::SimdDiv            0      0.00%      0.00% # Class of instruction blocking at head of ROB
system.cpu0.iew.rob_head_stall_class_0::SimdSqrt            0      0.00%      0.00% # Class of instruction blocking at head of ROB
system.cpu0.iew.rob_head_stall_class_0::SimdFloatAdd            0      0.00%      0.00% # Class of instruction blocking at head of ROB
system.cpu0.iew.rob_head_stall_class_0::SimdFloatAlu            0      0.00%      0.00% # Class of instruction blocking at head of ROB
system.cpu0.iew.rob_head_stall_class_0::SimdFloatCmp            0      0.00%      0.00% # Class of instruction blocking at head of ROB
system.cpu0.iew.rob_head_stall_class_0::SimdFloatCvt            0      0.00%      0.00% # Class of instruction blocking at head of ROB
system.cpu0.iew.rob_head_stall_class_0::SimdFloatDiv            0      0.00%      0.00% # Class of instruction blocking at head of ROB
system.cpu0.iew.rob_head_stall_class_0::SimdFloatMisc            0      0.00%      0.00% # Class of instruction blocking at head of ROB
system.cpu0.iew.rob_head_stall_class_0::SimdFloatMult            0      0.00%      0.00% # Class of instruction blocking at head of ROB
system.cpu0.iew.rob_head_stall_class_0::SimdFloatMultAcc            0      0.00%      0.00% # Class of instruction blocking at head of ROB
system.cpu0.iew.rob_head_stall_class_0::SimdFloatSqrt            0      0.00%      0.00% # Class of instruction blocking at head of ROB
system.cpu0.iew.rob_head_stall_class_0::SimdReduceAdd            0      0.00%      0.00% # Class of instruction blocking at head of ROB
system.cpu0.iew.rob_head_stall_class_0::SimdReduceAlu            0      0.00%      0.00% # Class of instruction blocking at head of ROB
system.cpu0.iew.rob_head_stall_class_0::SimdReduceCmp            0      0.00%      0.00% # Class of instruction blocking at head of ROB
system.cpu0.iew.rob_head_stall_class_0::SimdFloatReduceAdd            0      0.00%      0.00% # Class of instruction blocking at head of ROB
system.cpu0.iew.rob_head_stall_class_0::SimdFloatReduceCmp            0      0.00%      0.00% # Class of instruction blocking at head of ROB
system.cpu0.iew.rob_head_stall_class_0::SimdAes            0      0.00%      0.00% # Class of instruction blocking at head of ROB
system.cpu0.iew.rob_head_stall_class_0::SimdAesMix            0      0.00%      0.00% # Class of instruction blocking at head of ROB
system.cpu0.iew.rob_head_stall_class_0::SimdSha1Hash            0      0.00%      0.00% # Class of instruction blocking at head of ROB
system.cpu0.iew.rob_head_stall_class_0::SimdSha1Hash2            0      0.00%      0.00% # Class of instruction blocking at head of ROB
system.cpu0.iew.rob_head_stall_class_0::SimdSha256Hash            0      0.00%      0.00% # Class of instruction blocking at head of ROB
system.cpu0.iew.rob_head_stall_class_0::SimdSha256Hash2            0      0.00%      0.00% # Class of instruction blocking at head of ROB
system.cpu0.iew.rob_head_stall_class_0::SimdShaSigma2            0      0.00%      0.00% # Class of instruction blocking at head of ROB
system.cpu0.iew.rob_head_stall_class_0::SimdShaSigma3            0      0.00%      0.00% # Class of instruction blocking at head of ROB
system.cpu0.iew.rob_head_stall_class_0::SimdPredAlu            0      0.00%      0.00% # Class of instruction blocking at head of ROB
system.cpu0.iew.rob_head_stall_class_0::MemRead           15      4.88%      4.88% # Class of instruction blocking at head of ROB
system.cpu0.iew.rob_head_stall_class_0::MemWrite          292     95.11%     99.99% # Class of instruction blocking at head of ROB
system.cpu0.iew.rob_head_stall_class_0::FloatMemRead            0      0.00%     99.99% # Class of instruction blocking at head of ROB
system.cpu0.iew.rob_head_stall_class_0::FloatMemWrite            0      0.00%     99.99% # Class of instruction blocking at head of ROB
system.cpu0.iew.rob_head_stall_class_0::IprAccess            0      0.00%     99.99% # Class of instruction blocking at head of ROB
system.cpu0.iew.rob_head_stall_class_0::InstPrefetch            0      0.00%     99.99% # Class of instruction blocking at head of ROB
system.cpu0.iew.rob_head_stall_class_0::total          307                       # Class of instruction blocking at head of ROB
system.cpu0.iew.robfull                           307                       # number of stalls in the iew stage due to rob being full
system.cpu0.ipc                              0.138273                       # IPC: Instructions Per Cycle
system.cpu0.ipc_total                        0.138273                       # IPC: Total IPC of All Threads
system.cpu0.itb.accesses                            0                       # DTB accesses
system.cpu0.itb.hits                                0                       # DTB hits
system.cpu0.itb.misses                              0                       # DTB misses
system.cpu0.itb.read_accesses                       0                       # DTB read accesses
system.cpu0.itb.read_hits                           0                       # DTB read hits
system.cpu0.itb.read_misses                         0                       # DTB read misses
system.cpu0.itb.write_accesses                      0                       # DTB write accesses
system.cpu0.itb.write_hits                          0                       # DTB write hits
system.cpu0.itb.write_misses                        0                       # DTB write misses
system.cpu0.numCycles                            1714                       # number of cpu cycles simulated
system.cpu0.numWorkItemsCompleted                   0                       # number of work items this cpu completed
system.cpu0.numWorkItemsStarted                     0                       # number of work items this cpu started
system.cpu0.num_committed_insts                   237                       # Number of Instructions Simulated
system.cpu0.pwrStateResidencyTicks::ON      299117000                       # Cumulative time (in ticks) in various power states
system.cpu0.workload.numSyscalls                    0                       # Number of system calls
system.cpu1.branchPred.BTBCorrect                   0                       # Number of correct BTB predictions (this stat may not work properly.
system.cpu1.branchPred.BTBHitPct            29.166666                       # BTB Hit Percentage
system.cpu1.branchPred.BTBHits                     14                       # Number of BTB hits
system.cpu1.branchPred.BTBLookups                  48                       # Number of BTB lookups
system.cpu1.branchPred.RASInCorrect                 0                       # Number of incorrect RAS predictions.
system.cpu1.branchPred.condIncorrect               16                       # Number of conditional branches incorrect
system.cpu1.branchPred.condPredicted               34                       # Number of conditional branches predicted
system.cpu1.branchPred.indirectHits                 0                       # Number of indirect target hits.
system.cpu1.branchPred.indirectLookups              6                       # Number of indirect predictor lookups.
system.cpu1.branchPred.indirectMisses               6                       # Number of indirect misses.
system.cpu1.branchPred.lookups                     59                       # Number of BP lookups
system.cpu1.branchPred.usedRAS                      0                       # Number of times the RAS was used to get a target.
system.cpu1.branchPredindirectMispredicted            2                       # Number of mispredicted indirect branches.
system.cpu1.commit.commit_stalls                    0                       # number of stalls in the commit stage due to insufficient credits
system.cpu1.cpi                              7.387931                       # CPI: Cycles Per Instruction
system.cpu1.cpi_total                        7.387931                       # CPI: Total CPI of All Threads
system.cpu1.dtb.accesses                            0                       # DTB accesses
system.cpu1.dtb.hits                                0                       # DTB hits
system.cpu1.dtb.misses                              0                       # DTB misses
system.cpu1.dtb.read_accesses                       0                       # DTB read accesses
system.cpu1.dtb.read_hits                           0                       # DTB read hits
system.cpu1.dtb.read_misses                         0                       # DTB read misses
system.cpu1.dtb.write_accesses                      0                       # DTB write accesses
system.cpu1.dtb.write_hits                          0                       # DTB write hits
system.cpu1.dtb.write_misses                        0                       # DTB write misses
system.cpu1.iew.dep_stall_insts_0::No_OpClass            0      0.00%      0.00% # Class of instruction blocked in Issue due to dependency
system.cpu1.iew.dep_stall_insts_0::IntAlu           91     28.88%     28.88% # Class of instruction blocked in Issue due to dependency
system.cpu1.iew.dep_stall_insts_0::IntMult          208     66.03%     94.92% # Class of instruction blocked in Issue due to dependency
system.cpu1.iew.dep_stall_insts_0::IntDiv            0      0.00%     94.92% # Class of instruction blocked in Issue due to dependency
system.cpu1.iew.dep_stall_insts_0::FloatAdd            0      0.00%     94.92% # Class of instruction blocked in Issue due to dependency
system.cpu1.iew.dep_stall_insts_0::FloatCmp            0      0.00%     94.92% # Class of instruction blocked in Issue due to dependency
system.cpu1.iew.dep_stall_insts_0::FloatCvt            0      0.00%     94.92% # Class of instruction blocked in Issue due to dependency
system.cpu1.iew.dep_stall_insts_0::FloatMult            0      0.00%     94.92% # Class of instruction blocked in Issue due to dependency
system.cpu1.iew.dep_stall_insts_0::FloatMultAcc            0      0.00%     94.92% # Class of instruction blocked in Issue due to dependency
system.cpu1.iew.dep_stall_insts_0::FloatDiv            0      0.00%     94.92% # Class of instruction blocked in Issue due to dependency
system.cpu1.iew.dep_stall_insts_0::FloatMisc            0      0.00%     94.92% # Class of instruction blocked in Issue due to dependency
system.cpu1.iew.dep_stall_insts_0::FloatSqrt            0      0.00%     94.92% # Class of instruction blocked in Issue due to dependency
system.cpu1.iew.dep_stall_insts_0::SimdAdd            0      0.00%     94.92% # Class of instruction blocked in Issue due to dependency
system.cpu1.iew.dep_stall_insts_0::SimdAddAcc            0      0.00%     94.92% # Class of instruction blocked in Issue due to dependency
system.cpu1.iew.dep_stall_insts_0::SimdAlu            0      0.00%     94.92% # Class of instruction blocked in Issue due to dependency
system.cpu1.iew.dep_stall_insts_0::SimdCmp            0      0.00%     94.92% # Class of instruction blocked in Issue due to dependency
system.cpu1.iew.dep_stall_insts_0::SimdCvt            0      0.00%     94.92% # Class of instruction blocked in Issue due to dependency
system.cpu1.iew.dep_stall_insts_0::SimdMisc            0      0.00%     94.92% # Class of instruction blocked in Issue due to dependency
system.cpu1.iew.dep_stall_insts_0::SimdMult            0      0.00%     94.92% # Class of instruction blocked in Issue due to dependency
system.cpu1.iew.dep_stall_insts_0::SimdMultAcc            0      0.00%     94.92% # Class of instruction blocked in Issue due to dependency
system.cpu1.iew.dep_stall_insts_0::SimdShift            0      0.00%     94.92% # Class of instruction blocked in Issue due to dependency
system.cpu1.iew.dep_stall_insts_0::SimdShiftAcc            0      0.00%     94.92% # Class of instruction blocked in Issue due to dependency
system.cpu1.iew.dep_stall_insts_0::SimdDiv            0      0.00%     94.92% # Class of instruction blocked in Issue due to dependency
system.cpu1.iew.dep_stall_insts_0::SimdSqrt            0      0.00%     94.92% # Class of instruction blocked in Issue due to dependency
system.cpu1.iew.dep_stall_insts_0::SimdFloatAdd            0      0.00%     94.92% # Class of instruction blocked in Issue due to dependency
system.cpu1.iew.dep_stall_insts_0::SimdFloatAlu            0      0.00%     94.92% # Class of instruction blocked in Issue due to dependency
system.cpu1.iew.dep_stall_insts_0::SimdFloatCmp            0      0.00%     94.92% # Class of instruction blocked in Issue due to dependency
system.cpu1.iew.dep_stall_insts_0::SimdFloatCvt            0      0.00%     94.92% # Class of instruction blocked in Issue due to dependency
system.cpu1.iew.dep_stall_insts_0::SimdFloatDiv            0      0.00%     94.92% # Class of instruction blocked in Issue due to dependency
system.cpu1.iew.dep_stall_insts_0::SimdFloatMisc            0      0.00%     94.92% # Class of instruction blocked in Issue due to dependency
system.cpu1.iew.dep_stall_insts_0::SimdFloatMult            0      0.00%     94.92% # Class of instruction blocked in Issue due to dependency
system.cpu1.iew.dep_stall_insts_0::SimdFloatMultAcc            0      0.00%     94.92% # Class of instruction blocked in Issue due to dependency
system.cpu1.iew.dep_stall_insts_0::SimdFloatSqrt            0      0.00%     94.92% # Class of instruction blocked in Issue due to dependency
system.cpu1.iew.dep_stall_insts_0::SimdReduceAdd            0      0.00%     94.92% # Class of instruction blocked in Issue due to dependency
system.cpu1.iew.dep_stall_insts_0::SimdReduceAlu            0      0.00%     94.92% # Class of instruction blocked in Issue due to dependency
system.cpu1.iew.dep_stall_insts_0::SimdReduceCmp            0      0.00%     94.92% # Class of instruction blocked in Issue due to dependency
system.cpu1.iew.dep_stall_insts_0::SimdFloatReduceAdd            0      0.00%     94.92% # Class of instruction blocked in Issue due to dependency
system.cpu1.iew.dep_stall_insts_0::SimdFloatReduceCmp            0      0.00%     94.92% # Class of instruction blocked in Issue due to dependency
system.cpu1.iew.dep_stall_insts_0::SimdAes            0      0.00%     94.92% # Class of instruction blocked in Issue due to dependency
system.cpu1.iew.dep_stall_insts_0::SimdAesMix            0      0.00%     94.92% # Class of instruction blocked in Issue due to dependency
system.cpu1.iew.dep_stall_insts_0::SimdSha1Hash            0      0.00%     94.92% # Class of instruction blocked in Issue due to dependency
system.cpu1.iew.dep_stall_insts_0::SimdSha1Hash2            0      0.00%     94.92% # Class of instruction blocked in Issue due to dependency
system.cpu1.iew.dep_stall_insts_0::SimdSha256Hash            0      0.00%     94.92% # Class of instruction blocked in Issue due to dependency
system.cpu1.iew.dep_stall_insts_0::SimdSha256Hash2            0      0.00%     94.92% # Class of instruction blocked in Issue due to dependency
system.cpu1.iew.dep_stall_insts_0::SimdShaSigma2            0      0.00%     94.92% # Class of instruction blocked in Issue due to dependency
system.cpu1.iew.dep_stall_insts_0::SimdShaSigma3            0      0.00%     94.92% # Class of instruction blocked in Issue due to dependency
system.cpu1.iew.dep_stall_insts_0::SimdPredAlu            0      0.00%     94.92% # Class of instruction blocked in Issue due to dependency
system.cpu1.iew.dep_stall_insts_0::MemRead            0      0.00%     94.92% # Class of instruction blocked in Issue due to dependency
system.cpu1.iew.dep_stall_insts_0::MemWrite           16      5.07%     99.99% # Class of instruction blocked in Issue due to dependency
system.cpu1.iew.dep_stall_insts_0::FloatMemRead            0      0.00%     99.99% # Class of instruction blocked in Issue due to dependency
system.cpu1.iew.dep_stall_insts_0::FloatMemWrite            0      0.00%     99.99% # Class of instruction blocked in Issue due to dependency
system.cpu1.iew.dep_stall_insts_0::IprAccess            0      0.00%     99.99% # Class of instruction blocked in Issue due to dependency
system.cpu1.iew.dep_stall_insts_0::InstPrefetch            0      0.00%     99.99% # Class of instruction blocked in Issue due to dependency
system.cpu1.iew.dep_stall_insts_0::total          315                       # Class of instruction blocked in Issue due to dependency
system.cpu1.iew.iew_stalls_control                 57                       # number of stalls in the iew stage due to stalling for control flow insts in pipeline
system.cpu1.iew.iew_stalls_dep                    315                       # number of stalls in the iew stage due to dependency
system.cpu1.iew.iew_stalls_execbusy                58                       # number of stalls in the iew stage due to exec stage being busy
system.cpu1.iew.iew_stalls_membarrier               0                       # number of stalls in the iew stage due to pending mem barrier
system.cpu1.iew.iew_stalls_revec                    1                       # number of stalls in the iew stage due to stalling for revec in pipeline
system.cpu1.iew.rob_head_stall_class_0::No_OpClass            0      0.00%      0.00% # Class of instruction blocking at head of ROB
system.cpu1.iew.rob_head_stall_class_0::IntAlu            0      0.00%      0.00% # Class of instruction blocking at head of ROB
system.cpu1.iew.rob_head_stall_class_0::IntMult            0      0.00%      0.00% # Class of instruction blocking at head of ROB
system.cpu1.iew.rob_head_stall_class_0::IntDiv            0      0.00%      0.00% # Class of instruction blocking at head of ROB
system.cpu1.iew.rob_head_stall_class_0::FloatAdd            0      0.00%      0.00% # Class of instruction blocking at head of ROB
system.cpu1.iew.rob_head_stall_class_0::FloatCmp            0      0.00%      0.00% # Class of instruction blocking at head of ROB
system.cpu1.iew.rob_head_stall_class_0::FloatCvt            0      0.00%      0.00% # Class of instruction blocking at head of ROB
system.cpu1.iew.rob_head_stall_class_0::FloatMult            0      0.00%      0.00% # Class of instruction blocking at head of ROB
system.cpu1.iew.rob_head_stall_class_0::FloatMultAcc            0      0.00%      0.00% # Class of instruction blocking at head of ROB
system.cpu1.iew.rob_head_stall_class_0::FloatDiv            0      0.00%      0.00% # Class of instruction blocking at head of ROB
system.cpu1.iew.rob_head_stall_class_0::FloatMisc            0      0.00%      0.00% # Class of instruction blocking at head of ROB
system.cpu1.iew.rob_head_stall_class_0::FloatSqrt            0      0.00%      0.00% # Class of instruction blocking at head of ROB
system.cpu1.iew.rob_head_stall_class_0::SimdAdd            0      0.00%      0.00% # Class of instruction blocking at head of ROB
system.cpu1.iew.rob_head_stall_class_0::SimdAddAcc            0      0.00%      0.00% # Class of instruction blocking at head of ROB
system.cpu1.iew.rob_head_stall_class_0::SimdAlu            0      0.00%      0.00% # Class of instruction blocking at head of ROB
system.cpu1.iew.rob_head_stall_class_0::SimdCmp            0      0.00%      0.00% # Class of instruction blocking at head of ROB
system.cpu1.iew.rob_head_stall_class_0::SimdCvt            0      0.00%      0.00% # Class of instruction blocking at head of ROB
system.cpu1.iew.rob_head_stall_class_0::SimdMisc            0      0.00%      0.00% # Class of instruction blocking at head of ROB
system.cpu1.iew.rob_head_stall_class_0::SimdMult            0      0.00%      0.00% # Class of instruction blocking at head of ROB
system.cpu1.iew.rob_head_stall_class_0::SimdMultAcc            0      0.00%      0.00% # Class of instruction blocking at head of ROB
system.cpu1.iew.rob_head_stall_class_0::SimdShift            0      0.00%      0.00% # Class of instruction blocking at head of ROB
system.cpu1.iew.rob_head_stall_class_0::SimdShiftAcc            0      0.00%      0.00% # Class of instruction blocking at head of ROB
system.cpu1.iew.rob_head_stall_class_0::SimdDiv            0      0.00%      0.00% # Class of instruction blocking at head of ROB
system.cpu1.iew.rob_head_stall_class_0::SimdSqrt            0      0.00%      0.00% # Class of instruction blocking at head of ROB
system.cpu1.iew.rob_head_stall_class_0::SimdFloatAdd            0      0.00%      0.00% # Class of instruction blocking at head of ROB
system.cpu1.iew.rob_head_stall_class_0::SimdFloatAlu            0      0.00%      0.00% # Class of instruction blocking at head of ROB
system.cpu1.iew.rob_head_stall_class_0::SimdFloatCmp            0      0.00%      0.00% # Class of instruction blocking at head of ROB
system.cpu1.iew.rob_head_stall_class_0::SimdFloatCvt            0      0.00%      0.00% # Class of instruction blocking at head of ROB
system.cpu1.iew.rob_head_stall_class_0::SimdFloatDiv            0      0.00%      0.00% # Class of instruction blocking at head of ROB
system.cpu1.iew.rob_head_stall_class_0::SimdFloatMisc            0      0.00%      0.00% # Class of instruction blocking at head of ROB
system.cpu1.iew.rob_head_stall_class_0::SimdFloatMult            0      0.00%      0.00% # Class of instruction blocking at head of ROB
system.cpu1.iew.rob_head_stall_class_0::SimdFloatMultAcc            0      0.00%      0.00% # Class of instruction blocking at head of ROB
system.cpu1.iew.rob_head_stall_class_0::SimdFloatSqrt            0      0.00%      0.00% # Class of instruction blocking at head of ROB
system.cpu1.iew.rob_head_stall_class_0::SimdReduceAdd            0      0.00%      0.00% # Class of instruction blocking at head of ROB
system.cpu1.iew.rob_head_stall_class_0::SimdReduceAlu            0      0.00%      0.00% # Class of instruction blocking at head of ROB
system.cpu1.iew.rob_head_stall_class_0::SimdReduceCmp            0      0.00%      0.00% # Class of instruction blocking at head of ROB
system.cpu1.iew.rob_head_stall_class_0::SimdFloatReduceAdd            0      0.00%      0.00% # Class of instruction blocking at head of ROB
system.cpu1.iew.rob_head_stall_class_0::SimdFloatReduceCmp            0      0.00%      0.00% # Class of instruction blocking at head of ROB
system.cpu1.iew.rob_head_stall_class_0::SimdAes            0      0.00%      0.00% # Class of instruction blocking at head of ROB
system.cpu1.iew.rob_head_stall_class_0::SimdAesMix            0      0.00%      0.00% # Class of instruction blocking at head of ROB
system.cpu1.iew.rob_head_stall_class_0::SimdSha1Hash            0      0.00%      0.00% # Class of instruction blocking at head of ROB
system.cpu1.iew.rob_head_stall_class_0::SimdSha1Hash2            0      0.00%      0.00% # Class of instruction blocking at head of ROB
system.cpu1.iew.rob_head_stall_class_0::SimdSha256Hash            0      0.00%      0.00% # Class of instruction blocking at head of ROB
system.cpu1.iew.rob_head_stall_class_0::SimdSha256Hash2            0      0.00%      0.00% # Class of instruction blocking at head of ROB
system.cpu1.iew.rob_head_stall_class_0::SimdShaSigma2            0      0.00%      0.00% # Class of instruction blocking at head of ROB
system.cpu1.iew.rob_head_stall_class_0::SimdShaSigma3            0      0.00%      0.00% # Class of instruction blocking at head of ROB
system.cpu1.iew.rob_head_stall_class_0::SimdPredAlu            0      0.00%      0.00% # Class of instruction blocking at head of ROB
system.cpu1.iew.rob_head_stall_class_0::MemRead            0      0.00%      0.00% # Class of instruction blocking at head of ROB
system.cpu1.iew.rob_head_stall_class_0::MemWrite          197    100.00%    100.00% # Class of instruction blocking at head of ROB
system.cpu1.iew.rob_head_stall_class_0::FloatMemRead            0      0.00%    100.00% # Class of instruction blocking at head of ROB
system.cpu1.iew.rob_head_stall_class_0::FloatMemWrite            0      0.00%    100.00% # Class of instruction blocking at head of ROB
system.cpu1.iew.rob_head_stall_class_0::IprAccess            0      0.00%    100.00% # Class of instruction blocking at head of ROB
system.cpu1.iew.rob_head_stall_class_0::InstPrefetch            0      0.00%    100.00% # Class of instruction blocking at head of ROB
system.cpu1.iew.rob_head_stall_class_0::total          197                       # Class of instruction blocking at head of ROB
system.cpu1.iew.robfull                           197                       # number of stalls in the iew stage due to rob being full
system.cpu1.ipc                              0.135355                       # IPC: Instructions Per Cycle
system.cpu1.ipc_total                        0.135355                       # IPC: Total IPC of All Threads
system.cpu1.itb.accesses                            0                       # DTB accesses
system.cpu1.itb.hits                                0                       # DTB hits
system.cpu1.itb.misses                              0                       # DTB misses
system.cpu1.itb.read_accesses                       0                       # DTB read accesses
system.cpu1.itb.read_hits                           0                       # DTB read hits
system.cpu1.itb.read_misses                         0                       # DTB read misses
system.cpu1.itb.write_accesses                      0                       # DTB write accesses
system.cpu1.itb.write_hits                          0                       # DTB write hits
system.cpu1.itb.write_misses                        0                       # DTB write misses
system.cpu1.numCycles                            1714                       # number of cpu cycles simulated
system.cpu1.numWorkItemsCompleted                   0                       # number of work items this cpu completed
system.cpu1.numWorkItemsStarted                     0                       # number of work items this cpu started
system.cpu1.num_committed_insts                   232                       # Number of Instructions Simulated
system.cpu1.pwrStateResidencyTicks::ON      299117000                       # Cumulative time (in ticks) in various power states
system.cpu2.branchPred.BTBCorrect                   0                       # Number of correct BTB predictions (this stat may not work properly.
system.cpu2.branchPred.BTBHitPct            29.166666                       # BTB Hit Percentage
system.cpu2.branchPred.BTBHits                     14                       # Number of BTB hits
system.cpu2.branchPred.BTBLookups                  48                       # Number of BTB lookups
system.cpu2.branchPred.RASInCorrect                 0                       # Number of incorrect RAS predictions.
system.cpu2.branchPred.condIncorrect               17                       # Number of conditional branches incorrect
system.cpu2.branchPred.condPredicted               34                       # Number of conditional branches predicted
system.cpu2.branchPred.indirectHits                 0                       # Number of indirect target hits.
system.cpu2.branchPred.indirectLookups              6                       # Number of indirect predictor lookups.
system.cpu2.branchPred.indirectMisses               6                       # Number of indirect misses.
system.cpu2.branchPred.lookups                     59                       # Number of BP lookups
system.cpu2.branchPred.usedRAS                      0                       # Number of times the RAS was used to get a target.
system.cpu2.branchPredindirectMispredicted            3                       # Number of mispredicted indirect branches.
system.cpu2.commit.commit_stalls                    0                       # number of stalls in the commit stage due to insufficient credits
system.cpu2.cpi                              7.293617                       # CPI: Cycles Per Instruction
system.cpu2.cpi_total                        7.293617                       # CPI: Total CPI of All Threads
system.cpu2.dtb.accesses                            0                       # DTB accesses
system.cpu2.dtb.hits                                0                       # DTB hits
system.cpu2.dtb.misses                              0                       # DTB misses
system.cpu2.dtb.read_accesses                       0                       # DTB read accesses
system.cpu2.dtb.read_hits                           0                       # DTB read hits
system.cpu2.dtb.read_misses                         0                       # DTB read misses
system.cpu2.dtb.write_accesses                      0                       # DTB write accesses
system.cpu2.dtb.write_hits                          0                       # DTB write hits
system.cpu2.dtb.write_misses                        0                       # DTB write misses
system.cpu2.iew.dep_stall_insts_0::No_OpClass            0      0.00%      0.00% # Class of instruction blocked in Issue due to dependency
system.cpu2.iew.dep_stall_insts_0::IntAlu           83     30.18%     30.18% # Class of instruction blocked in Issue due to dependency
system.cpu2.iew.dep_stall_insts_0::IntMult          176     63.99%     94.18% # Class of instruction blocked in Issue due to dependency
system.cpu2.iew.dep_stall_insts_0::IntDiv            0      0.00%     94.18% # Class of instruction blocked in Issue due to dependency
system.cpu2.iew.dep_stall_insts_0::FloatAdd            0      0.00%     94.18% # Class of instruction blocked in Issue due to dependency
system.cpu2.iew.dep_stall_insts_0::FloatCmp            0      0.00%     94.18% # Class of instruction blocked in Issue due to dependency
system.cpu2.iew.dep_stall_insts_0::FloatCvt            0      0.00%     94.18% # Class of instruction blocked in Issue due to dependency
system.cpu2.iew.dep_stall_insts_0::FloatMult            0      0.00%     94.18% # Class of instruction blocked in Issue due to dependency
system.cpu2.iew.dep_stall_insts_0::FloatMultAcc            0      0.00%     94.18% # Class of instruction blocked in Issue due to dependency
system.cpu2.iew.dep_stall_insts_0::FloatDiv            0      0.00%     94.18% # Class of instruction blocked in Issue due to dependency
system.cpu2.iew.dep_stall_insts_0::FloatMisc            0      0.00%     94.18% # Class of instruction blocked in Issue due to dependency
system.cpu2.iew.dep_stall_insts_0::FloatSqrt            0      0.00%     94.18% # Class of instruction blocked in Issue due to dependency
system.cpu2.iew.dep_stall_insts_0::SimdAdd            0      0.00%     94.18% # Class of instruction blocked in Issue due to dependency
system.cpu2.iew.dep_stall_insts_0::SimdAddAcc            0      0.00%     94.18% # Class of instruction blocked in Issue due to dependency
system.cpu2.iew.dep_stall_insts_0::SimdAlu            0      0.00%     94.18% # Class of instruction blocked in Issue due to dependency
system.cpu2.iew.dep_stall_insts_0::SimdCmp            0      0.00%     94.18% # Class of instruction blocked in Issue due to dependency
system.cpu2.iew.dep_stall_insts_0::SimdCvt            0      0.00%     94.18% # Class of instruction blocked in Issue due to dependency
system.cpu2.iew.dep_stall_insts_0::SimdMisc            0      0.00%     94.18% # Class of instruction blocked in Issue due to dependency
system.cpu2.iew.dep_stall_insts_0::SimdMult            0      0.00%     94.18% # Class of instruction blocked in Issue due to dependency
system.cpu2.iew.dep_stall_insts_0::SimdMultAcc            0      0.00%     94.18% # Class of instruction blocked in Issue due to dependency
system.cpu2.iew.dep_stall_insts_0::SimdShift            0      0.00%     94.18% # Class of instruction blocked in Issue due to dependency
system.cpu2.iew.dep_stall_insts_0::SimdShiftAcc            0      0.00%     94.18% # Class of instruction blocked in Issue due to dependency
system.cpu2.iew.dep_stall_insts_0::SimdDiv            0      0.00%     94.18% # Class of instruction blocked in Issue due to dependency
system.cpu2.iew.dep_stall_insts_0::SimdSqrt            0      0.00%     94.18% # Class of instruction blocked in Issue due to dependency
system.cpu2.iew.dep_stall_insts_0::SimdFloatAdd            0      0.00%     94.18% # Class of instruction blocked in Issue due to dependency
system.cpu2.iew.dep_stall_insts_0::SimdFloatAlu            0      0.00%     94.18% # Class of instruction blocked in Issue due to dependency
system.cpu2.iew.dep_stall_insts_0::SimdFloatCmp            0      0.00%     94.18% # Class of instruction blocked in Issue due to dependency
system.cpu2.iew.dep_stall_insts_0::SimdFloatCvt            0      0.00%     94.18% # Class of instruction blocked in Issue due to dependency
system.cpu2.iew.dep_stall_insts_0::SimdFloatDiv            0      0.00%     94.18% # Class of instruction blocked in Issue due to dependency
system.cpu2.iew.dep_stall_insts_0::SimdFloatMisc            0      0.00%     94.18% # Class of instruction blocked in Issue due to dependency
system.cpu2.iew.dep_stall_insts_0::SimdFloatMult            0      0.00%     94.18% # Class of instruction blocked in Issue due to dependency
system.cpu2.iew.dep_stall_insts_0::SimdFloatMultAcc            0      0.00%     94.18% # Class of instruction blocked in Issue due to dependency
system.cpu2.iew.dep_stall_insts_0::SimdFloatSqrt            0      0.00%     94.18% # Class of instruction blocked in Issue due to dependency
system.cpu2.iew.dep_stall_insts_0::SimdReduceAdd            0      0.00%     94.18% # Class of instruction blocked in Issue due to dependency
system.cpu2.iew.dep_stall_insts_0::SimdReduceAlu            0      0.00%     94.18% # Class of instruction blocked in Issue due to dependency
system.cpu2.iew.dep_stall_insts_0::SimdReduceCmp            0      0.00%     94.18% # Class of instruction blocked in Issue due to dependency
system.cpu2.iew.dep_stall_insts_0::SimdFloatReduceAdd            0      0.00%     94.18% # Class of instruction blocked in Issue due to dependency
system.cpu2.iew.dep_stall_insts_0::SimdFloatReduceCmp            0      0.00%     94.18% # Class of instruction blocked in Issue due to dependency
system.cpu2.iew.dep_stall_insts_0::SimdAes            0      0.00%     94.18% # Class of instruction blocked in Issue due to dependency
system.cpu2.iew.dep_stall_insts_0::SimdAesMix            0      0.00%     94.18% # Class of instruction blocked in Issue due to dependency
system.cpu2.iew.dep_stall_insts_0::SimdSha1Hash            0      0.00%     94.18% # Class of instruction blocked in Issue due to dependency
system.cpu2.iew.dep_stall_insts_0::SimdSha1Hash2            0      0.00%     94.18% # Class of instruction blocked in Issue due to dependency
system.cpu2.iew.dep_stall_insts_0::SimdSha256Hash            0      0.00%     94.18% # Class of instruction blocked in Issue due to dependency
system.cpu2.iew.dep_stall_insts_0::SimdSha256Hash2            0      0.00%     94.18% # Class of instruction blocked in Issue due to dependency
system.cpu2.iew.dep_stall_insts_0::SimdShaSigma2            0      0.00%     94.18% # Class of instruction blocked in Issue due to dependency
system.cpu2.iew.dep_stall_insts_0::SimdShaSigma3            0      0.00%     94.18% # Class of instruction blocked in Issue due to dependency
system.cpu2.iew.dep_stall_insts_0::SimdPredAlu            0      0.00%     94.18% # Class of instruction blocked in Issue due to dependency
system.cpu2.iew.dep_stall_insts_0::MemRead            0      0.00%     94.18% # Class of instruction blocked in Issue due to dependency
system.cpu2.iew.dep_stall_insts_0::MemWrite           16      5.81%     99.99% # Class of instruction blocked in Issue due to dependency
system.cpu2.iew.dep_stall_insts_0::FloatMemRead            0      0.00%     99.99% # Class of instruction blocked in Issue due to dependency
system.cpu2.iew.dep_stall_insts_0::FloatMemWrite            0      0.00%     99.99% # Class of instruction blocked in Issue due to dependency
system.cpu2.iew.dep_stall_insts_0::IprAccess            0      0.00%     99.99% # Class of instruction blocked in Issue due to dependency
system.cpu2.iew.dep_stall_insts_0::InstPrefetch            0      0.00%     99.99% # Class of instruction blocked in Issue due to dependency
system.cpu2.iew.dep_stall_insts_0::total          275                       # Class of instruction blocked in Issue due to dependency
system.cpu2.iew.iew_stalls_control                 57                       # number of stalls in the iew stage due to stalling for control flow insts in pipeline
system.cpu2.iew.iew_stalls_dep                    275                       # number of stalls in the iew stage due to dependency
system.cpu2.iew.iew_stalls_execbusy                42                       # number of stalls in the iew stage due to exec stage being busy
system.cpu2.iew.iew_stalls_membarrier               0                       # number of stalls in the iew stage due to pending mem barrier
system.cpu2.iew.iew_stalls_revec                    1                       # number of stalls in the iew stage due to stalling for revec in pipeline
system.cpu2.iew.rob_head_stall_class_0::No_OpClass            0      0.00%      0.00% # Class of instruction blocking at head of ROB
system.cpu2.iew.rob_head_stall_class_0::IntAlu            0      0.00%      0.00% # Class of instruction blocking at head of ROB
system.cpu2.iew.rob_head_stall_class_0::IntMult            0      0.00%      0.00% # Class of instruction blocking at head of ROB
system.cpu2.iew.rob_head_stall_class_0::IntDiv            0      0.00%      0.00% # Class of instruction blocking at head of ROB
system.cpu2.iew.rob_head_stall_class_0::FloatAdd            0      0.00%      0.00% # Class of instruction blocking at head of ROB
system.cpu2.iew.rob_head_stall_class_0::FloatCmp            0      0.00%      0.00% # Class of instruction blocking at head of ROB
system.cpu2.iew.rob_head_stall_class_0::FloatCvt            0      0.00%      0.00% # Class of instruction blocking at head of ROB
system.cpu2.iew.rob_head_stall_class_0::FloatMult            0      0.00%      0.00% # Class of instruction blocking at head of ROB
system.cpu2.iew.rob_head_stall_class_0::FloatMultAcc            0      0.00%      0.00% # Class of instruction blocking at head of ROB
system.cpu2.iew.rob_head_stall_class_0::FloatDiv            0      0.00%      0.00% # Class of instruction blocking at head of ROB
system.cpu2.iew.rob_head_stall_class_0::FloatMisc            0      0.00%      0.00% # Class of instruction blocking at head of ROB
system.cpu2.iew.rob_head_stall_class_0::FloatSqrt            0      0.00%      0.00% # Class of instruction blocking at head of ROB
system.cpu2.iew.rob_head_stall_class_0::SimdAdd            0      0.00%      0.00% # Class of instruction blocking at head of ROB
system.cpu2.iew.rob_head_stall_class_0::SimdAddAcc            0      0.00%      0.00% # Class of instruction blocking at head of ROB
system.cpu2.iew.rob_head_stall_class_0::SimdAlu            0      0.00%      0.00% # Class of instruction blocking at head of ROB
system.cpu2.iew.rob_head_stall_class_0::SimdCmp            0      0.00%      0.00% # Class of instruction blocking at head of ROB
system.cpu2.iew.rob_head_stall_class_0::SimdCvt            0      0.00%      0.00% # Class of instruction blocking at head of ROB
system.cpu2.iew.rob_head_stall_class_0::SimdMisc            0      0.00%      0.00% # Class of instruction blocking at head of ROB
system.cpu2.iew.rob_head_stall_class_0::SimdMult            0      0.00%      0.00% # Class of instruction blocking at head of ROB
system.cpu2.iew.rob_head_stall_class_0::SimdMultAcc            0      0.00%      0.00% # Class of instruction blocking at head of ROB
system.cpu2.iew.rob_head_stall_class_0::SimdShift            0      0.00%      0.00% # Class of instruction blocking at head of ROB
system.cpu2.iew.rob_head_stall_class_0::SimdShiftAcc            0      0.00%      0.00% # Class of instruction blocking at head of ROB
system.cpu2.iew.rob_head_stall_class_0::SimdDiv            0      0.00%      0.00% # Class of instruction blocking at head of ROB
system.cpu2.iew.rob_head_stall_class_0::SimdSqrt            0      0.00%      0.00% # Class of instruction blocking at head of ROB
system.cpu2.iew.rob_head_stall_class_0::SimdFloatAdd            0      0.00%      0.00% # Class of instruction blocking at head of ROB
system.cpu2.iew.rob_head_stall_class_0::SimdFloatAlu            0      0.00%      0.00% # Class of instruction blocking at head of ROB
system.cpu2.iew.rob_head_stall_class_0::SimdFloatCmp            0      0.00%      0.00% # Class of instruction blocking at head of ROB
system.cpu2.iew.rob_head_stall_class_0::SimdFloatCvt            0      0.00%      0.00% # Class of instruction blocking at head of ROB
system.cpu2.iew.rob_head_stall_class_0::SimdFloatDiv            0      0.00%      0.00% # Class of instruction blocking at head of ROB
system.cpu2.iew.rob_head_stall_class_0::SimdFloatMisc            0      0.00%      0.00% # Class of instruction blocking at head of ROB
system.cpu2.iew.rob_head_stall_class_0::SimdFloatMult            0      0.00%      0.00% # Class of instruction blocking at head of ROB
system.cpu2.iew.rob_head_stall_class_0::SimdFloatMultAcc            0      0.00%      0.00% # Class of instruction blocking at head of ROB
system.cpu2.iew.rob_head_stall_class_0::SimdFloatSqrt            0      0.00%      0.00% # Class of instruction blocking at head of ROB
system.cpu2.iew.rob_head_stall_class_0::SimdReduceAdd            0      0.00%      0.00% # Class of instruction blocking at head of ROB
system.cpu2.iew.rob_head_stall_class_0::SimdReduceAlu            0      0.00%      0.00% # Class of instruction blocking at head of ROB
system.cpu2.iew.rob_head_stall_class_0::SimdReduceCmp            0      0.00%      0.00% # Class of instruction blocking at head of ROB
system.cpu2.iew.rob_head_stall_class_0::SimdFloatReduceAdd            0      0.00%      0.00% # Class of instruction blocking at head of ROB
system.cpu2.iew.rob_head_stall_class_0::SimdFloatReduceCmp            0      0.00%      0.00% # Class of instruction blocking at head of ROB
system.cpu2.iew.rob_head_stall_class_0::SimdAes            0      0.00%      0.00% # Class of instruction blocking at head of ROB
system.cpu2.iew.rob_head_stall_class_0::SimdAesMix            0      0.00%      0.00% # Class of instruction blocking at head of ROB
system.cpu2.iew.rob_head_stall_class_0::SimdSha1Hash            0      0.00%      0.00% # Class of instruction blocking at head of ROB
system.cpu2.iew.rob_head_stall_class_0::SimdSha1Hash2            0      0.00%      0.00% # Class of instruction blocking at head of ROB
system.cpu2.iew.rob_head_stall_class_0::SimdSha256Hash            0      0.00%      0.00% # Class of instruction blocking at head of ROB
system.cpu2.iew.rob_head_stall_class_0::SimdSha256Hash2            0      0.00%      0.00% # Class of instruction blocking at head of ROB
system.cpu2.iew.rob_head_stall_class_0::SimdShaSigma2            0      0.00%      0.00% # Class of instruction blocking at head of ROB
system.cpu2.iew.rob_head_stall_class_0::SimdShaSigma3            0      0.00%      0.00% # Class of instruction blocking at head of ROB
system.cpu2.iew.rob_head_stall_class_0::SimdPredAlu            0      0.00%      0.00% # Class of instruction blocking at head of ROB
system.cpu2.iew.rob_head_stall_class_0::MemRead            0      0.00%      0.00% # Class of instruction blocking at head of ROB
system.cpu2.iew.rob_head_stall_class_0::MemWrite          144    100.00%    100.00% # Class of instruction blocking at head of ROB
system.cpu2.iew.rob_head_stall_class_0::FloatMemRead            0      0.00%    100.00% # Class of instruction blocking at head of ROB
system.cpu2.iew.rob_head_stall_class_0::FloatMemWrite            0      0.00%    100.00% # Class of instruction blocking at head of ROB
system.cpu2.iew.rob_head_stall_class_0::IprAccess            0      0.00%    100.00% # Class of instruction blocking at head of ROB
system.cpu2.iew.rob_head_stall_class_0::InstPrefetch            0      0.00%    100.00% # Class of instruction blocking at head of ROB
system.cpu2.iew.rob_head_stall_class_0::total          144                       # Class of instruction blocking at head of ROB
system.cpu2.iew.robfull                           144                       # number of stalls in the iew stage due to rob being full
system.cpu2.ipc                              0.137106                       # IPC: Instructions Per Cycle
system.cpu2.ipc_total                        0.137106                       # IPC: Total IPC of All Threads
system.cpu2.itb.accesses                            0                       # DTB accesses
system.cpu2.itb.hits                                0                       # DTB hits
system.cpu2.itb.misses                              0                       # DTB misses
system.cpu2.itb.read_accesses                       0                       # DTB read accesses
system.cpu2.itb.read_hits                           0                       # DTB read hits
system.cpu2.itb.read_misses                         0                       # DTB read misses
system.cpu2.itb.write_accesses                      0                       # DTB write accesses
system.cpu2.itb.write_hits                          0                       # DTB write hits
system.cpu2.itb.write_misses                        0                       # DTB write misses
system.cpu2.numCycles                            1714                       # number of cpu cycles simulated
system.cpu2.numWorkItemsCompleted                   0                       # number of work items this cpu completed
system.cpu2.numWorkItemsStarted                     0                       # number of work items this cpu started
system.cpu2.num_committed_insts                   235                       # Number of Instructions Simulated
system.cpu2.pwrStateResidencyTicks::ON      299117000                       # Cumulative time (in ticks) in various power states
system.cpu3.branchPred.BTBCorrect                   0                       # Number of correct BTB predictions (this stat may not work properly.
system.cpu3.branchPred.BTBHitPct            55.999999                       # BTB Hit Percentage
system.cpu3.branchPred.BTBHits                     14                       # Number of BTB hits
system.cpu3.branchPred.BTBLookups                  25                       # Number of BTB lookups
system.cpu3.branchPred.RASInCorrect                 0                       # Number of incorrect RAS predictions.
system.cpu3.branchPred.condIncorrect               17                       # Number of conditional branches incorrect
system.cpu3.branchPred.condPredicted               34                       # Number of conditional branches predicted
system.cpu3.branchPred.indirectHits                 0                       # Number of indirect target hits.
system.cpu3.branchPred.indirectLookups              6                       # Number of indirect predictor lookups.
system.cpu3.branchPred.indirectMisses               6                       # Number of indirect misses.
system.cpu3.branchPred.lookups                     59                       # Number of BP lookups
system.cpu3.branchPred.usedRAS                      0                       # Number of times the RAS was used to get a target.
system.cpu3.branchPredindirectMispredicted            3                       # Number of mispredicted indirect branches.
system.cpu3.commit.commit_stalls                    0                       # number of stalls in the commit stage due to insufficient credits
system.cpu3.cpi                              7.171548                       # CPI: Cycles Per Instruction
system.cpu3.cpi_total                        7.171548                       # CPI: Total CPI of All Threads
system.cpu3.dtb.accesses                            0                       # DTB accesses
system.cpu3.dtb.hits                                0                       # DTB hits
system.cpu3.dtb.misses                              0                       # DTB misses
system.cpu3.dtb.read_accesses                       0                       # DTB read accesses
system.cpu3.dtb.read_hits                           0                       # DTB read hits
system.cpu3.dtb.read_misses                         0                       # DTB read misses
system.cpu3.dtb.write_accesses                      0                       # DTB write accesses
system.cpu3.dtb.write_hits                          0                       # DTB write hits
system.cpu3.dtb.write_misses                        0                       # DTB write misses
system.cpu3.iew.dep_stall_insts_0::No_OpClass            0      0.00%      0.00% # Class of instruction blocked in Issue due to dependency
system.cpu3.iew.dep_stall_insts_0::IntAlu           97     33.44%     33.44% # Class of instruction blocked in Issue due to dependency
system.cpu3.iew.dep_stall_insts_0::IntMult          177     61.03%     94.48% # Class of instruction blocked in Issue due to dependency
system.cpu3.iew.dep_stall_insts_0::IntDiv            0      0.00%     94.48% # Class of instruction blocked in Issue due to dependency
system.cpu3.iew.dep_stall_insts_0::FloatAdd            0      0.00%     94.48% # Class of instruction blocked in Issue due to dependency
system.cpu3.iew.dep_stall_insts_0::FloatCmp            0      0.00%     94.48% # Class of instruction blocked in Issue due to dependency
system.cpu3.iew.dep_stall_insts_0::FloatCvt            0      0.00%     94.48% # Class of instruction blocked in Issue due to dependency
system.cpu3.iew.dep_stall_insts_0::FloatMult            0      0.00%     94.48% # Class of instruction blocked in Issue due to dependency
system.cpu3.iew.dep_stall_insts_0::FloatMultAcc            0      0.00%     94.48% # Class of instruction blocked in Issue due to dependency
system.cpu3.iew.dep_stall_insts_0::FloatDiv            0      0.00%     94.48% # Class of instruction blocked in Issue due to dependency
system.cpu3.iew.dep_stall_insts_0::FloatMisc            0      0.00%     94.48% # Class of instruction blocked in Issue due to dependency
system.cpu3.iew.dep_stall_insts_0::FloatSqrt            0      0.00%     94.48% # Class of instruction blocked in Issue due to dependency
system.cpu3.iew.dep_stall_insts_0::SimdAdd            0      0.00%     94.48% # Class of instruction blocked in Issue due to dependency
system.cpu3.iew.dep_stall_insts_0::SimdAddAcc            0      0.00%     94.48% # Class of instruction blocked in Issue due to dependency
system.cpu3.iew.dep_stall_insts_0::SimdAlu            0      0.00%     94.48% # Class of instruction blocked in Issue due to dependency
system.cpu3.iew.dep_stall_insts_0::SimdCmp            0      0.00%     94.48% # Class of instruction blocked in Issue due to dependency
system.cpu3.iew.dep_stall_insts_0::SimdCvt            0      0.00%     94.48% # Class of instruction blocked in Issue due to dependency
system.cpu3.iew.dep_stall_insts_0::SimdMisc            0      0.00%     94.48% # Class of instruction blocked in Issue due to dependency
system.cpu3.iew.dep_stall_insts_0::SimdMult            0      0.00%     94.48% # Class of instruction blocked in Issue due to dependency
system.cpu3.iew.dep_stall_insts_0::SimdMultAcc            0      0.00%     94.48% # Class of instruction blocked in Issue due to dependency
system.cpu3.iew.dep_stall_insts_0::SimdShift            0      0.00%     94.48% # Class of instruction blocked in Issue due to dependency
system.cpu3.iew.dep_stall_insts_0::SimdShiftAcc            0      0.00%     94.48% # Class of instruction blocked in Issue due to dependency
system.cpu3.iew.dep_stall_insts_0::SimdDiv            0      0.00%     94.48% # Class of instruction blocked in Issue due to dependency
system.cpu3.iew.dep_stall_insts_0::SimdSqrt            0      0.00%     94.48% # Class of instruction blocked in Issue due to dependency
system.cpu3.iew.dep_stall_insts_0::SimdFloatAdd            0      0.00%     94.48% # Class of instruction blocked in Issue due to dependency
system.cpu3.iew.dep_stall_insts_0::SimdFloatAlu            0      0.00%     94.48% # Class of instruction blocked in Issue due to dependency
system.cpu3.iew.dep_stall_insts_0::SimdFloatCmp            0      0.00%     94.48% # Class of instruction blocked in Issue due to dependency
system.cpu3.iew.dep_stall_insts_0::SimdFloatCvt            0      0.00%     94.48% # Class of instruction blocked in Issue due to dependency
system.cpu3.iew.dep_stall_insts_0::SimdFloatDiv            0      0.00%     94.48% # Class of instruction blocked in Issue due to dependency
system.cpu3.iew.dep_stall_insts_0::SimdFloatMisc            0      0.00%     94.48% # Class of instruction blocked in Issue due to dependency
system.cpu3.iew.dep_stall_insts_0::SimdFloatMult            0      0.00%     94.48% # Class of instruction blocked in Issue due to dependency
system.cpu3.iew.dep_stall_insts_0::SimdFloatMultAcc            0      0.00%     94.48% # Class of instruction blocked in Issue due to dependency
system.cpu3.iew.dep_stall_insts_0::SimdFloatSqrt            0      0.00%     94.48% # Class of instruction blocked in Issue due to dependency
system.cpu3.iew.dep_stall_insts_0::SimdReduceAdd            0      0.00%     94.48% # Class of instruction blocked in Issue due to dependency
system.cpu3.iew.dep_stall_insts_0::SimdReduceAlu            0      0.00%     94.48% # Class of instruction blocked in Issue due to dependency
system.cpu3.iew.dep_stall_insts_0::SimdReduceCmp            0      0.00%     94.48% # Class of instruction blocked in Issue due to dependency
system.cpu3.iew.dep_stall_insts_0::SimdFloatReduceAdd            0      0.00%     94.48% # Class of instruction blocked in Issue due to dependency
system.cpu3.iew.dep_stall_insts_0::SimdFloatReduceCmp            0      0.00%     94.48% # Class of instruction blocked in Issue due to dependency
system.cpu3.iew.dep_stall_insts_0::SimdAes            0      0.00%     94.48% # Class of instruction blocked in Issue due to dependency
system.cpu3.iew.dep_stall_insts_0::SimdAesMix            0      0.00%     94.48% # Class of instruction blocked in Issue due to dependency
system.cpu3.iew.dep_stall_insts_0::SimdSha1Hash            0      0.00%     94.48% # Class of instruction blocked in Issue due to dependency
system.cpu3.iew.dep_stall_insts_0::SimdSha1Hash2            0      0.00%     94.48% # Class of instruction blocked in Issue due to dependency
system.cpu3.iew.dep_stall_insts_0::SimdSha256Hash            0      0.00%     94.48% # Class of instruction blocked in Issue due to dependency
system.cpu3.iew.dep_stall_insts_0::SimdSha256Hash2            0      0.00%     94.48% # Class of instruction blocked in Issue due to dependency
system.cpu3.iew.dep_stall_insts_0::SimdShaSigma2            0      0.00%     94.48% # Class of instruction blocked in Issue due to dependency
system.cpu3.iew.dep_stall_insts_0::SimdShaSigma3            0      0.00%     94.48% # Class of instruction blocked in Issue due to dependency
system.cpu3.iew.dep_stall_insts_0::SimdPredAlu            0      0.00%     94.48% # Class of instruction blocked in Issue due to dependency
system.cpu3.iew.dep_stall_insts_0::MemRead            0      0.00%     94.48% # Class of instruction blocked in Issue due to dependency
system.cpu3.iew.dep_stall_insts_0::MemWrite           16      5.51%     99.99% # Class of instruction blocked in Issue due to dependency
system.cpu3.iew.dep_stall_insts_0::FloatMemRead            0      0.00%     99.99% # Class of instruction blocked in Issue due to dependency
system.cpu3.iew.dep_stall_insts_0::FloatMemWrite            0      0.00%     99.99% # Class of instruction blocked in Issue due to dependency
system.cpu3.iew.dep_stall_insts_0::IprAccess            0      0.00%     99.99% # Class of instruction blocked in Issue due to dependency
system.cpu3.iew.dep_stall_insts_0::InstPrefetch            0      0.00%     99.99% # Class of instruction blocked in Issue due to dependency
system.cpu3.iew.dep_stall_insts_0::total          290                       # Class of instruction blocked in Issue due to dependency
system.cpu3.iew.iew_stalls_control                 57                       # number of stalls in the iew stage due to stalling for control flow insts in pipeline
system.cpu3.iew.iew_stalls_dep                    290                       # number of stalls in the iew stage due to dependency
system.cpu3.iew.iew_stalls_execbusy                50                       # number of stalls in the iew stage due to exec stage being busy
system.cpu3.iew.iew_stalls_membarrier               0                       # number of stalls in the iew stage due to pending mem barrier
system.cpu3.iew.iew_stalls_revec                    1                       # number of stalls in the iew stage due to stalling for revec in pipeline
system.cpu3.iew.rob_head_stall_class_0::No_OpClass            0      0.00%      0.00% # Class of instruction blocking at head of ROB
system.cpu3.iew.rob_head_stall_class_0::IntAlu            0      0.00%      0.00% # Class of instruction blocking at head of ROB
system.cpu3.iew.rob_head_stall_class_0::IntMult            0      0.00%      0.00% # Class of instruction blocking at head of ROB
system.cpu3.iew.rob_head_stall_class_0::IntDiv            0      0.00%      0.00% # Class of instruction blocking at head of ROB
system.cpu3.iew.rob_head_stall_class_0::FloatAdd            0      0.00%      0.00% # Class of instruction blocking at head of ROB
system.cpu3.iew.rob_head_stall_class_0::FloatCmp            0      0.00%      0.00% # Class of instruction blocking at head of ROB
system.cpu3.iew.rob_head_stall_class_0::FloatCvt            0      0.00%      0.00% # Class of instruction blocking at head of ROB
system.cpu3.iew.rob_head_stall_class_0::FloatMult            0      0.00%      0.00% # Class of instruction blocking at head of ROB
system.cpu3.iew.rob_head_stall_class_0::FloatMultAcc            0      0.00%      0.00% # Class of instruction blocking at head of ROB
system.cpu3.iew.rob_head_stall_class_0::FloatDiv            0      0.00%      0.00% # Class of instruction blocking at head of ROB
system.cpu3.iew.rob_head_stall_class_0::FloatMisc            0      0.00%      0.00% # Class of instruction blocking at head of ROB
system.cpu3.iew.rob_head_stall_class_0::FloatSqrt            0      0.00%      0.00% # Class of instruction blocking at head of ROB
system.cpu3.iew.rob_head_stall_class_0::SimdAdd            0      0.00%      0.00% # Class of instruction blocking at head of ROB
system.cpu3.iew.rob_head_stall_class_0::SimdAddAcc            0      0.00%      0.00% # Class of instruction blocking at head of ROB
system.cpu3.iew.rob_head_stall_class_0::SimdAlu            0      0.00%      0.00% # Class of instruction blocking at head of ROB
system.cpu3.iew.rob_head_stall_class_0::SimdCmp            0      0.00%      0.00% # Class of instruction blocking at head of ROB
system.cpu3.iew.rob_head_stall_class_0::SimdCvt            0      0.00%      0.00% # Class of instruction blocking at head of ROB
system.cpu3.iew.rob_head_stall_class_0::SimdMisc            0      0.00%      0.00% # Class of instruction blocking at head of ROB
system.cpu3.iew.rob_head_stall_class_0::SimdMult            0      0.00%      0.00% # Class of instruction blocking at head of ROB
system.cpu3.iew.rob_head_stall_class_0::SimdMultAcc            0      0.00%      0.00% # Class of instruction blocking at head of ROB
system.cpu3.iew.rob_head_stall_class_0::SimdShift            0      0.00%      0.00% # Class of instruction blocking at head of ROB
system.cpu3.iew.rob_head_stall_class_0::SimdShiftAcc            0      0.00%      0.00% # Class of instruction blocking at head of ROB
system.cpu3.iew.rob_head_stall_class_0::SimdDiv            0      0.00%      0.00% # Class of instruction blocking at head of ROB
system.cpu3.iew.rob_head_stall_class_0::SimdSqrt            0      0.00%      0.00% # Class of instruction blocking at head of ROB
system.cpu3.iew.rob_head_stall_class_0::SimdFloatAdd            0      0.00%      0.00% # Class of instruction blocking at head of ROB
system.cpu3.iew.rob_head_stall_class_0::SimdFloatAlu            0      0.00%      0.00% # Class of instruction blocking at head of ROB
system.cpu3.iew.rob_head_stall_class_0::SimdFloatCmp            0      0.00%      0.00% # Class of instruction blocking at head of ROB
system.cpu3.iew.rob_head_stall_class_0::SimdFloatCvt            0      0.00%      0.00% # Class of instruction blocking at head of ROB
system.cpu3.iew.rob_head_stall_class_0::SimdFloatDiv            0      0.00%      0.00% # Class of instruction blocking at head of ROB
system.cpu3.iew.rob_head_stall_class_0::SimdFloatMisc            0      0.00%      0.00% # Class of instruction blocking at head of ROB
system.cpu3.iew.rob_head_stall_class_0::SimdFloatMult            0      0.00%      0.00% # Class of instruction blocking at head of ROB
system.cpu3.iew.rob_head_stall_class_0::SimdFloatMultAcc            0      0.00%      0.00% # Class of instruction blocking at head of ROB
system.cpu3.iew.rob_head_stall_class_0::SimdFloatSqrt            0      0.00%      0.00% # Class of instruction blocking at head of ROB
system.cpu3.iew.rob_head_stall_class_0::SimdReduceAdd            0      0.00%      0.00% # Class of instruction blocking at head of ROB
system.cpu3.iew.rob_head_stall_class_0::SimdReduceAlu            0      0.00%      0.00% # Class of instruction blocking at head of ROB
system.cpu3.iew.rob_head_stall_class_0::SimdReduceCmp            0      0.00%      0.00% # Class of instruction blocking at head of ROB
system.cpu3.iew.rob_head_stall_class_0::SimdFloatReduceAdd            0      0.00%      0.00% # Class of instruction blocking at head of ROB
system.cpu3.iew.rob_head_stall_class_0::SimdFloatReduceCmp            0      0.00%      0.00% # Class of instruction blocking at head of ROB
system.cpu3.iew.rob_head_stall_class_0::SimdAes            0      0.00%      0.00% # Class of instruction blocking at head of ROB
system.cpu3.iew.rob_head_stall_class_0::SimdAesMix            0      0.00%      0.00% # Class of instruction blocking at head of ROB
system.cpu3.iew.rob_head_stall_class_0::SimdSha1Hash            0      0.00%      0.00% # Class of instruction blocking at head of ROB
system.cpu3.iew.rob_head_stall_class_0::SimdSha1Hash2            0      0.00%      0.00% # Class of instruction blocking at head of ROB
system.cpu3.iew.rob_head_stall_class_0::SimdSha256Hash            0      0.00%      0.00% # Class of instruction blocking at head of ROB
system.cpu3.iew.rob_head_stall_class_0::SimdSha256Hash2            0      0.00%      0.00% # Class of instruction blocking at head of ROB
system.cpu3.iew.rob_head_stall_class_0::SimdShaSigma2            0      0.00%      0.00% # Class of instruction blocking at head of ROB
system.cpu3.iew.rob_head_stall_class_0::SimdShaSigma3            0      0.00%      0.00% # Class of instruction blocking at head of ROB
system.cpu3.iew.rob_head_stall_class_0::SimdPredAlu            0      0.00%      0.00% # Class of instruction blocking at head of ROB
system.cpu3.iew.rob_head_stall_class_0::MemRead            0      0.00%      0.00% # Class of instruction blocking at head of ROB
system.cpu3.iew.rob_head_stall_class_0::MemWrite          152    100.00%    100.00% # Class of instruction blocking at head of ROB
system.cpu3.iew.rob_head_stall_class_0::FloatMemRead            0      0.00%    100.00% # Class of instruction blocking at head of ROB
system.cpu3.iew.rob_head_stall_class_0::FloatMemWrite            0      0.00%    100.00% # Class of instruction blocking at head of ROB
system.cpu3.iew.rob_head_stall_class_0::IprAccess            0      0.00%    100.00% # Class of instruction blocking at head of ROB
system.cpu3.iew.rob_head_stall_class_0::InstPrefetch            0      0.00%    100.00% # Class of instruction blocking at head of ROB
system.cpu3.iew.rob_head_stall_class_0::total          152                       # Class of instruction blocking at head of ROB
system.cpu3.iew.robfull                           152                       # number of stalls in the iew stage due to rob being full
system.cpu3.ipc                              0.139439                       # IPC: Instructions Per Cycle
system.cpu3.ipc_total                        0.139439                       # IPC: Total IPC of All Threads
system.cpu3.itb.accesses                            0                       # DTB accesses
system.cpu3.itb.hits                                0                       # DTB hits
system.cpu3.itb.misses                              0                       # DTB misses
[...]
system.network.routers4.crossbar_activity          308                      
system.network.routers4.pwrStateResidencyTicks::UNDEFINED    299117000                       # Cumulative time (in ticks) in various power states
system.network.routers4.sw_input_arbiter_activity          308                      
system.network.routers4.sw_output_arbiter_activity          308                      
system.network.routers5.buffer_reads              223                      
system.network.routers5.buffer_writes             223                      
system.network.routers5.crossbar_activity          223                      
system.network.routers5.pwrStateResidencyTicks::UNDEFINED    299117000                       # Cumulative time (in ticks) in various power states
system.network.routers5.sw_input_arbiter_activity          223                      
system.network.routers5.sw_output_arbiter_activity          223                      
system.ruby.IFETCH.L1Cache.hit_type_mach_latency_hist_seqr::bucket_size           32                      
system.ruby.IFETCH.L1Cache.hit_type_mach_latency_hist_seqr::max_bucket          319                      
system.ruby.IFETCH.L1Cache.hit_type_mach_latency_hist_seqr::samples          166                      
system.ruby.IFETCH.L1Cache.hit_type_mach_latency_hist_seqr::mean    23.132530                      
system.ruby.IFETCH.L1Cache.hit_type_mach_latency_hist_seqr::gmean     2.323273                      
system.ruby.IFETCH.L1Cache.hit_type_mach_latency_hist_seqr::stdev    49.664393                      
system.ruby.IFETCH.L1Cache.hit_type_mach_latency_hist_seqr |         137     82.53%     82.53% |           0      0.00%     82.53% |           0      0.00%     82.53% |          15      9.03%     91.56% |           4      2.40%     93.97% |          10      6.02%     99.99% |           0      0.00%     99.99% |           0      0.00%     99.99% |           0      0.00%     99.99% |           0      0.00%     99.99%
system.ruby.IFETCH.L1Cache.hit_type_mach_latency_hist_seqr::total          166                      
system.ruby.IFETCH.hit_latency_hist_seqr::bucket_size           32                      
system.ruby.IFETCH.hit_latency_hist_seqr::max_bucket          319                      
system.ruby.IFETCH.hit_latency_hist_seqr::samples          166                      
system.ruby.IFETCH.hit_latency_hist_seqr::mean    23.132530                      
system.ruby.IFETCH.hit_latency_hist_seqr::gmean     2.323273                      
system.ruby.IFETCH.hit_latency_hist_seqr::stdev    49.664393                      
system.ruby.IFETCH.hit_latency_hist_seqr |         137     82.53%     82.53% |           0      0.00%     82.53% |           0      0.00%     82.53% |          15      9.03%     91.56% |           4      2.40%     93.97% |          10      6.02%     99.99% |           0      0.00%     99.99% |           0      0.00%     99.99% |           0      0.00%     99.99% |           0      0.00%     99.99%
system.ruby.IFETCH.hit_latency_hist_seqr::total          166                      
system.ruby.IFETCH.latency_hist_seqr::bucket_size           32                      
system.ruby.IFETCH.latency_hist_seqr::max_bucket          319                      
system.ruby.IFETCH.latency_hist_seqr::samples          166                      
system.ruby.IFETCH.latency_hist_seqr::mean    23.132530                      
system.ruby.IFETCH.latency_hist_seqr::gmean     2.323273                      
system.ruby.IFETCH.latency_hist_seqr::stdev    49.664393                      
system.ruby.IFETCH.latency_hist_seqr     |         137     82.53%     82.53% |           0      0.00%     82.53% |           0      0.00%     82.53% |          15      9.03%     91.56% |           4      2.40%     93.97% |          10      6.02%     99.99% |           0      0.00%     99.99% |           0      0.00%     99.99% |           0      0.00%     99.99% |           0      0.00%     99.99%
system.ruby.IFETCH.latency_hist_seqr::total          166                      
system.ruby.L1Cache.hit_mach_latency_hist_seqr::bucket_size           32                      
system.ruby.L1Cache.hit_mach_latency_hist_seqr::max_bucket          319                      
system.ruby.L1Cache.hit_mach_latency_hist_seqr::samples          166                      
system.ruby.L1Cache.hit_mach_latency_hist_seqr::mean    23.132530                      
system.ruby.L1Cache.hit_mach_latency_hist_seqr::gmean     2.323273                      
system.ruby.L1Cache.hit_mach_latency_hist_seqr::stdev    49.664393                      
system.ruby.L1Cache.hit_mach_latency_hist_seqr |         137     82.53%     82.53% |           0      0.00%     82.53% |           0      0.00%     82.53% |          15      9.03%     91.56% |           4      2.40%     93.97% |          10      6.02%     99.99% |           0      0.00%     99.99% |           0      0.00%     99.99% |           0      0.00%     99.99% |           0      0.00%     99.99%
system.ruby.L1Cache.hit_mach_latency_hist_seqr::total          166                      
system.ruby.L1Cache_Controller.Data      |           5     17.24%     17.24% |           8     27.58%     44.82% |           8     27.58%     72.41% |           8     27.58%     99.99%
system.ruby.L1Cache_Controller.Data::total           29                      
system.ruby.L1Cache_Controller.Fetch     |          39     23.92%     23.92% |          41     25.15%     49.07% |          41     25.15%     74.23% |          42     25.76%     99.99%
system.ruby.L1Cache_Controller.Fetch::total          163                      
system.ruby.L1Cache_Controller.I.Data    |           5     17.24%     17.24% |           8     27.58%     44.82% |           8     27.58%     72.41% |           8     27.58%     99.99%
system.ruby.L1Cache_Controller.I.Data::total           29                      
system.ruby.L1Cache_Controller.I.Fetch   |           5     19.23%     19.23% |           7     26.92%     46.15% |           7     26.92%     73.07% |           7     26.92%     99.99%
system.ruby.L1Cache_Controller.I.Fetch::total           26                      
system.ruby.L1Cache_Controller.Repl      |           5    100.00%    100.00% |           0      0.00%    100.00% |           0      0.00%    100.00% |           0      0.00%    100.00%
system.ruby.L1Cache_Controller.Repl::total            5                      
system.ruby.L1Cache_Controller.V.Fetch   |          34     24.81%     24.81% |          34     24.81%     49.63% |          34     24.81%     74.45% |          35     25.54%     99.99%
system.ruby.L1Cache_Controller.V.Fetch::total          137                      
system.ruby.L1Cache_Controller.V.Repl    |           5    100.00%    100.00% |           0      0.00%    100.00% |           0      0.00%    100.00% |           0      0.00%    100.00%
system.ruby.L1Cache_Controller.V.Repl::total            5                      
system.ruby.L2Cache_Controller.I.READ    |           5    100.00%    100.00% |           0      0.00%    100.00%
system.ruby.L2Cache_Controller.I.READ::total            5                      
system.ruby.L2Cache_Controller.I.WRITE   |           3    100.00%    100.00% |           0      0.00%    100.00%
system.ruby.L2Cache_Controller.I.WRITE::total            3                      
system.ruby.L2Cache_Controller.IM.Memory_Data |           3    100.00%    100.00% |           0      0.00%    100.00%
system.ruby.L2Cache_Controller.IM.Memory_Data::total            3                      
system.ruby.L2Cache_Controller.IV.Memory_Data |           5    100.00%    100.00% |           0      0.00%    100.00%
system.ruby.L2Cache_Controller.IV.Memory_Data::total            5                      
system.ruby.L2Cache_Controller.IV.READ   |          12    100.00%    100.00% |           0      0.00%    100.00%
system.ruby.L2Cache_Controller.IV.READ::total           12                      
system.ruby.L2Cache_Controller.M.READ    |          30     65.21%     65.21% |          16     34.78%     99.99%
system.ruby.L2Cache_Controller.M.READ::total           46                      
system.ruby.L2Cache_Controller.M.SPLOAD  |          32     50.00%     50.00% |          32     50.00%    100.00%
system.ruby.L2Cache_Controller.M.SPLOAD::total           64                      
system.ruby.L2Cache_Controller.M.WRITE   |          38     58.46%     58.46% |          27     41.53%     99.99%
system.ruby.L2Cache_Controller.M.WRITE::total           65                      
system.ruby.L2Cache_Controller.Memory_Data |           8    100.00%    100.00% |           0      0.00%    100.00%
system.ruby.L2Cache_Controller.Memory_Data::total            8                      
system.ruby.L2Cache_Controller.READ      |          71     81.60%     81.60% |          16     18.39%     99.99%
system.ruby.L2Cache_Controller.READ::total           87                      
system.ruby.L2Cache_Controller.Repl      |           1    100.00%    100.00% |           0      0.00%    100.00%
system.ruby.L2Cache_Controller.Repl::total            1                      
system.ruby.L2Cache_Controller.SPLOAD    |          32     50.00%     50.00% |          32     50.00%    100.00%
system.ruby.L2Cache_Controller.SPLOAD::total           64                      
system.ruby.L2Cache_Controller.V.READ    |          24    100.00%    100.00% |           0      0.00%    100.00%
system.ruby.L2Cache_Controller.V.READ::total           24                      
system.ruby.L2Cache_Controller.V.Repl    |           1    100.00%    100.00% |           0      0.00%    100.00%
system.ruby.L2Cache_Controller.V.Repl::total            1                      
system.ruby.L2Cache_Controller.WRITE     |          41     60.29%     60.29% |          27     39.70%     99.99%
system.ruby.L2Cache_Controller.WRITE::total           68                      
system.ruby.hit_latency_hist_seqr::bucket_size           32                      
system.ruby.hit_latency_hist_seqr::max_bucket          319                      
system.ruby.hit_latency_hist_seqr::samples          166                      
system.ruby.hit_latency_hist_seqr::mean     23.132530                      
system.ruby.hit_latency_hist_seqr::gmean     2.323273                      
system.ruby.hit_latency_hist_seqr::stdev    49.664393                      
system.ruby.hit_latency_hist_seqr        |         137     82.53%     82.53% |           0      0.00%     82.53% |           0      0.00%     82.53% |          15      9.03%     91.56% |           4      2.40%     93.97% |          10      6.02%     99.99% |           0      0.00%     99.99% |           0      0.00%     99.99% |           0      0.00%     99.99% |           0      0.00%     99.99%
system.ruby.hit_latency_hist_seqr::total          166                      
system.ruby.latency_hist_seqr::bucket_size           32                      
system.ruby.latency_hist_seqr::max_bucket          319                      
system.ruby.latency_hist_seqr::samples            166                      
system.ruby.latency_hist_seqr::mean         23.132530                      
system.ruby.latency_hist_seqr::gmean         2.323273                      
system.ruby.latency_hist_seqr::stdev        49.664393                      
system.ruby.latency_hist_seqr            |         137     82.53%     82.53% |           0      0.00%     82.53% |           0      0.00%     82.53% |          15      9.03%     91.56% |           4      2.40%     93.97% |          10      6.02%     99.99% |           0      0.00%     99.99% |           0      0.00%     99.99% |           0      0.00%     99.99% |           0      0.00%     99.99%
system.ruby.latency_hist_seqr::total              166                      
system.ruby.outstanding_req_hist_seqr::bucket_size            1                      
system.ruby.outstanding_req_hist_seqr::max_bucket            9                      
system.ruby.outstanding_req_hist_seqr::samples          164                      
system.ruby.outstanding_req_hist_seqr::mean     1.036585                      
system.ruby.outstanding_req_hist_seqr::gmean     1.025683                      
system.ruby.outstanding_req_hist_seqr::stdev     0.188316                      
system.ruby.outstanding_req_hist_seqr    |           0      0.00%      0.00% |         158     96.34%     96.34% |           6      3.65%     99.99% |           0      0.00%     99.99% |           0      0.00%     99.99% |           0      0.00%     99.99% |           0      0.00%     99.99% |           0      0.00%     99.99% |           0      0.00%     99.99% |           0      0.00%     99.99%
system.ruby.outstanding_req_hist_seqr::total          164                      
system.ruby.pwrStateResidencyTicks::UNDEFINED    299117000                       # Cumulative time (in ticks) in various power states
system.ruby.sys_port_proxy.pwrStateResidencyTicks::UNDEFINED    299117000                       # Cumulative time (in ticks) in various power states
system.scratchpads0.local_accesses                 16                       # Number of local accesses completed
system.scratchpads0.local_loads                    16                       # Number of loads completed by the local core
system.scratchpads0.local_stores                    0                       # Number of stores completed by the local core
system.scratchpads0.memReqBuffer.avg_buf_msgs     0.026254                       # Average number of messages in buffer
system.scratchpads0.memReqBuffer.avg_stall_time         1000                       # Average number of cycles messages are stalled in this MB
system.scratchpads0.memRespBuffer.avg_buf_msgs     0.025087                       # Average number of messages in buffer
system.scratchpads0.memRespBuffer.avg_stall_time 10961.494188                       # Average number of cycles messages are stalled in this MB
system.scratchpads0.pwrStateResidencyTicks::UNDEFINED    299117000                       # Cumulative time (in ticks) in various power states
system.scratchpads0.remote_accesses                16                       # Number of remote accesses completed
system.scratchpads0.remote_loads                    0                       # Number of loads completed by a remote core
system.scratchpads0.remote_stores                  16                       # Number of stores completed by a remote core
system.scratchpads0.total_accesses                 32                       # Number of accesses completed
system.scratchpads1.local_accesses                 16                       # Number of local accesses completed
system.scratchpads1.local_loads                    16                       # Number of loads completed by the local core
system.scratchpads1.local_stores                    0                       # Number of stores completed by the local core
system.scratchpads1.memReqBuffer.avg_buf_msgs     0.025670                       # Average number of messages in buffer
system.scratchpads1.memReqBuffer.avg_stall_time         1000                       # Average number of cycles messages are stalled in this MB
system.scratchpads1.memRespBuffer.avg_buf_msgs     0.024504                       # Average number of messages in buffer
system.scratchpads1.memRespBuffer.avg_stall_time 11267.211629                       # Average number of cycles messages are stalled in this MB
system.scratchpads1.pwrStateResidencyTicks::UNDEFINED    299117000                       # Cumulative time (in ticks) in various power states
system.scratchpads1.remoteReqBuffer.avg_stall_time         8000                       # Average number of cycles messages are stalled in this MB
system.scratchpads1.remoteRespBuffer.avg_stall_time         1000                       # Average number of cycles messages are stalled in this MB
system.scratchpads1.remote_accesses                16                       # Number of remote accesses completed
system.scratchpads1.remote_loads                    0                       # Number of loads completed by a remote core
system.scratchpads1.remote_stores                  16                       # Number of stores completed by a remote core
system.scratchpads1.total_accesses                 32                       # Number of accesses completed
system.scratchpads2.local_accesses                 16                       # Number of local accesses completed
system.scratchpads2.local_loads                    16                       # Number of loads completed by the local core
system.scratchpads2.local_stores                    0                       # Number of stores completed by the local core
system.scratchpads2.memReqBuffer.avg_buf_msgs     0.025087                       # Average number of messages in buffer
system.scratchpads2.memReqBuffer.avg_stall_time         1000                       # Average number of cycles messages are stalled in this MB
system.scratchpads2.memRespBuffer.avg_buf_msgs     0.025670                       # Average number of messages in buffer
system.scratchpads2.memRespBuffer.avg_stall_time  8667.445351                       # Average number of cycles messages are stalled in this MB
system.scratchpads2.pwrStateResidencyTicks::UNDEFINED    299117000                       # Cumulative time (in ticks) in various power states
system.scratchpads2.remoteReqBuffer.avg_stall_time         8000                       # Average number of cycles messages are stalled in this MB
system.scratchpads2.remoteRespBuffer.avg_stall_time         1000                       # Average number of cycles messages are stalled in this MB
system.scratchpads2.remote_accesses                16                       # Number of remote accesses completed
system.scratchpads2.remote_loads                    0                       # Number of loads completed by a remote core
system.scratchpads2.remote_stores                  16                       # Number of stores completed by a remote core
system.scratchpads2.total_accesses                 32                       # Number of accesses completed
system.scratchpads3.local_accesses                 16                       # Number of local accesses completed
system.scratchpads3.local_loads                    16                       # Number of loads completed by the local core
system.scratchpads3.local_stores                    0                       # Number of stores completed by the local core
system.scratchpads3.memReqBuffer.avg_buf_msgs     0.026254                       # Average number of messages in buffer
system.scratchpads3.memReqBuffer.avg_stall_time         1000                       # Average number of cycles messages are stalled in this MB
system.scratchpads3.memRespBuffer.avg_buf_msgs     0.026254                       # Average number of messages in buffer
system.scratchpads3.memRespBuffer.avg_stall_time  9294.048253                       # Average number of cycles messages are stalled in this MB
system.scratchpads3.pwrStateResidencyTicks::UNDEFINED    299117000                       # Cumulative time (in ticks) in various power states
system.scratchpads3.remoteReqBuffer.avg_stall_time        10000                       # Average number of cycles messages are stalled in this MB
system.scratchpads3.remoteRespBuffer.avg_stall_time         1000                       # Average number of cycles messages are stalled in this MB
system.scratchpads3.remote_accesses                16                       # Number of remote accesses completed
system.scratchpads3.remote_loads                    0                       # Number of loads completed by a remote core
system.scratchpads3.remote_stores                  16                       # Number of stores completed by a remote core
system.scratchpads3.total_accesses                 32                       # Number of accesses completed
system.voltage_domain.voltage                       1                       # Voltage in Volts

---------- End Simulation Statistics   ----------
