
---------- Begin Simulation Statistics ----------
final_tick                                  292877000                       # Number of ticks from beginning of simulation (restored from checkpoints and never reset)
host_inst_rate                                  21468                       # Simulator instruction rate (inst/s)
host_mem_usage                                 838948                       # Number of bytes of host memory used
host_op_rate                                    21362                       # Simulator op (including micro ops) rate (op/s)
host_seconds                                     0.03                       # Real time elapsed on the host
host_tick_rate                               46480320                       # Simulator tick rate (ticks/s)
sim_freq                                 1000000000000                       # Frequency of simulated ticks
sim_insts                                         705                       # Number of instructions simulated
sim_ops                                           705                       # Number of ops (including micro ops) simulated
sim_seconds                                  0.000001                       # Number of seconds simulated
sim_ticks                                     1535000                       # Number of ticks simulated
system.clk_domain.clock                          1000                       # Clock period in ticks
system.cpu0.branchPred.BTBCorrect                   0                       # Number of correct BTB predictions (this stat may not work properly.
system.cpu0.branchPred.BTBHitPct            25.581395                       # BTB Hit Percentage
system.cpu0.branchPred.BTBHits                     11                       # Number of BTB hits
system.cpu0.branchPred.BTBLookups                  43                       # Number of BTB lookups
system.cpu0.branchPred.RASInCorrect                 0                       # Number of incorrect RAS predictions.
system.cpu0.branchPred.condIncorrect               15                       # Number of conditional branches incorrect
system.cpu0.branchPred.condPredicted               31                       # Number of conditional branches predicted
system.cpu0.branchPred.indirectHits                 0                       # Number of indirect target hits.
system.cpu0.branchPred.indirectLookups              9                       # Number of indirect predictor lookups.
system.cpu0.branchPred.indirectMisses               9                       # Number of indirect misses.
system.cpu0.branchPred.lookups                     50                       # Number of BP lookups
system.cpu0.branchPred.usedRAS                      0                       # Number of times the RAS was used to get a target.
system.cpu0.branchPredindirectMispredicted            3                       # Number of mispredicted indirect branches.
system.cpu0.commit.commit_stalls                   88                       # number of stalls in the commit stage due to insufficient credits
system.cpu0.cpi                              8.575418                       # CPI: Cycles Per Instruction
system.cpu0.cpi_total                        8.575418                       # CPI: Total CPI of All Threads
system.cpu0.dtb.accesses                            0                       # DTB accesses
system.cpu0.dtb.hits                                0                       # DTB hits
system.cpu0.dtb.misses                              0                       # DTB misses
system.cpu0.dtb.read_accesses                       0                       # DTB read accesses
system.cpu0.dtb.read_hits                           0                       # DTB read hits
system.cpu0.dtb.read_misses                         0                       # DTB read misses
system.cpu0.dtb.write_accesses                      0                       # DTB write accesses
system.cpu0.dtb.write_hits                          0                       # DTB write hits
system.cpu0.dtb.write_misses                        0                       # DTB write misses
system.cpu0.iew.dep_stall_insts_0::No_OpClass            0      0.00%      0.00% # Class of instruction blocked in Issue due to dependency
system.cpu0.iew.dep_stall_insts_0::IntAlu           87     75.65%     75.65% # Class of instruction blocked in Issue due to dependency
system.cpu0.iew.dep_stall_insts_0::IntMult           20     17.39%     93.04% # Class of instruction blocked in Issue due to dependency
system.cpu0.iew.dep_stall_insts_0::IntDiv            0      0.00%     93.04% # Class of instruction blocked in Issue due to dependency
system.cpu0.iew.dep_stall_insts_0::FloatAdd            0      0.00%     93.04% # Class of instruction blocked in Issue due to dependency
system.cpu0.iew.dep_stall_insts_0::FloatCmp            0      0.00%     93.04% # Class of instruction blocked in Issue due to dependency
system.cpu0.iew.dep_stall_insts_0::FloatCvt            0      0.00%     93.04% # Class of instruction blocked in Issue due to dependency
system.cpu0.iew.dep_stall_insts_0::FloatMult            0      0.00%     93.04% # Class of instruction blocked in Issue due to dependency
system.cpu0.iew.dep_stall_insts_0::FloatMultAcc            0      0.00%     93.04% # Class of instruction blocked in Issue due to dependency
system.cpu0.iew.dep_stall_insts_0::FloatDiv            0      0.00%     93.04% # Class of instruction blocked in Issue due to dependency
system.cpu0.iew.dep_stall_insts_0::FloatMisc            0      0.00%     93.04% # Class of instruction blocked in Issue due to dependency
system.cpu0.iew.dep_stall_insts_0::FloatSqrt            0      0.00%     93.04% # Class of instruction blocked in Issue due to dependency
system.cpu0.iew.dep_stall_insts_0::SimdAdd            0      0.00%     93.04% # Class of instruction blocked in Issue due to dependency
system.cpu0.iew.dep_stall_insts_0::SimdAddAcc            0      0.00%     93.04% # Class of instruction blocked in Issue due to dependency
system.cpu0.iew.dep_stall_insts_0::SimdAlu            0      0.00%     93.04% # Class of instruction blocked in Issue due to dependency
system.cpu0.iew.dep_stall_insts_0::SimdCmp            0      0.00%     93.04% # Class of instruction blocked in Issue due to dependency
system.cpu0.iew.dep_stall_insts_0::SimdCvt            0      0.00%     93.04% # Class of instruction blocked in Issue due to dependency
system.cpu0.iew.dep_stall_insts_0::SimdMisc            0      0.00%     93.04% # Class of instruction blocked in Issue due to dependency
system.cpu0.iew.dep_stall_insts_0::SimdMult            0      0.00%     93.04% # Class of instruction blocked in Issue due to dependency
system.cpu0.iew.dep_stall_insts_0::SimdMultAcc            0      0.00%     93.04% # Class of instruction blocked in Issue due to dependency
system.cpu0.iew.dep_stall_insts_0::SimdShift            0      0.00%     93.04% # Class of instruction blocked in Issue due to dependency
system.cpu0.iew.dep_stall_insts_0::SimdShiftAcc            0      0.00%     93.04% # Class of instruction blocked in Issue due to dependency
system.cpu0.iew.dep_stall_insts_0::SimdDiv            0      0.00%     93.04% # Class of instruction blocked in Issue due to dependency
system.cpu0.iew.dep_stall_insts_0::SimdSqrt            0      0.00%     93.04% # Class of instruction blocked in Issue due to dependency
system.cpu0.iew.dep_stall_insts_0::SimdFloatAdd            0      0.00%     93.04% # Class of instruction blocked in Issue due to dependency
system.cpu0.iew.dep_stall_insts_0::SimdFloatAlu            0      0.00%     93.04% # Class of instruction blocked in Issue due to dependency
system.cpu0.iew.dep_stall_insts_0::SimdFloatCmp            0      0.00%     93.04% # Class of instruction blocked in Issue due to dependency
system.cpu0.iew.dep_stall_insts_0::SimdFloatCvt            0      0.00%     93.04% # Class of instruction blocked in Issue due to dependency
system.cpu0.iew.dep_stall_insts_0::SimdFloatDiv            0      0.00%     93.04% # Class of instruction blocked in Issue due to dependency
system.cpu0.iew.dep_stall_insts_0::SimdFloatMisc            0      0.00%     93.04% # Class of instruction blocked in Issue due to dependency
system.cpu0.iew.dep_stall_insts_0::SimdFloatMult            0      0.00%     93.04% # Class of instruction blocked in Issue due to dependency
system.cpu0.iew.dep_stall_insts_0::SimdFloatMultAcc            0      0.00%     93.04% # Class of instruction blocked in Issue due to dependency
system.cpu0.iew.dep_stall_insts_0::SimdFloatSqrt            0      0.00%     93.04% # Class of instruction blocked in Issue due to dependency
system.cpu0.iew.dep_stall_insts_0::SimdReduceAdd            0      0.00%     93.04% # Class of instruction blocked in Issue due to dependency
system.cpu0.iew.dep_stall_insts_0::SimdReduceAlu            0      0.00%     93.04% # Class of instruction blocked in Issue due to dependency
system.cpu0.iew.dep_stall_insts_0::SimdReduceCmp            0      0.00%     93.04% # Class of instruction blocked in Issue due to dependency
system.cpu0.iew.dep_stall_insts_0::SimdFloatReduceAdd            0      0.00%     93.04% # Class of instruction blocked in Issue due to dependency
system.cpu0.iew.dep_stall_insts_0::SimdFloatReduceCmp            0      0.00%     93.04% # Class of instruction blocked in Issue due to dependency
system.cpu0.iew.dep_stall_insts_0::SimdAes            0      0.00%     93.04% # Class of instruction blocked in Issue due to dependency
system.cpu0.iew.dep_stall_insts_0::SimdAesMix            0      0.00%     93.04% # Class of instruction blocked in Issue due to dependency
system.cpu0.iew.dep_stall_insts_0::SimdSha1Hash            0      0.00%     93.04% # Class of instruction blocked in Issue due to dependency
system.cpu0.iew.dep_stall_insts_0::SimdSha1Hash2            0      0.00%     93.04% # Class of instruction blocked in Issue due to dependency
system.cpu0.iew.dep_stall_insts_0::SimdSha256Hash            0      0.00%     93.04% # Class of instruction blocked in Issue due to dependency
system.cpu0.iew.dep_stall_insts_0::SimdSha256Hash2            0      0.00%     93.04% # Class of instruction blocked in Issue due to dependency
system.cpu0.iew.dep_stall_insts_0::SimdShaSigma2            0      0.00%     93.04% # Class of instruction blocked in Issue due to dependency
system.cpu0.iew.dep_stall_insts_0::SimdShaSigma3            0      0.00%     93.04% # Class of instruction blocked in Issue due to dependency
system.cpu0.iew.dep_stall_insts_0::SimdPredAlu            0      0.00%     93.04% # Class of instruction blocked in Issue due to dependency
system.cpu0.iew.dep_stall_insts_0::MemRead            0      0.00%     93.04% # Class of instruction blocked in Issue due to dependency
system.cpu0.iew.dep_stall_insts_0::MemWrite            8      6.95%     99.99% # Class of instruction blocked in Issue due to dependency
system.cpu0.iew.dep_stall_insts_0::FloatMemRead            0      0.00%     99.99% # Class of instruction blocked in Issue due to dependency
system.cpu0.iew.dep_stall_insts_0::FloatMemWrite            0      0.00%     99.99% # Class of instruction blocked in Issue due to dependency
system.cpu0.iew.dep_stall_insts_0::IprAccess            0      0.00%     99.99% # Class of instruction blocked in Issue due to dependency
system.cpu0.iew.dep_stall_insts_0::InstPrefetch            0      0.00%     99.99% # Class of instruction blocked in Issue due to dependency
system.cpu0.iew.dep_stall_insts_0::total          115                       # Class of instruction blocked in Issue due to dependency
system.cpu0.iew.iew_stalls_control                 32                       # number of stalls in the iew stage due to stalling for control flow insts in pipeline
system.cpu0.iew.iew_stalls_dep                    115                       # number of stalls in the iew stage due to dependency
system.cpu0.iew.iew_stalls_execbusy               106                       # number of stalls in the iew stage due to exec stage being busy
system.cpu0.iew.iew_stalls_membarrier               0                       # number of stalls in the iew stage due to pending mem barrier
system.cpu0.iew.iew_stalls_revec                    0                       # number of stalls in the iew stage due to stalling for revec in pipeline
system.cpu0.iew.rob_head_stall_class_0::No_OpClass            0      0.00%      0.00% # Class of instruction blocking at head of ROB
system.cpu0.iew.rob_head_stall_class_0::IntAlu            0      0.00%      0.00% # Class of instruction blocking at head of ROB
system.cpu0.iew.rob_head_stall_class_0::IntMult            0      0.00%      0.00% # Class of instruction blocking at head of ROB
system.cpu0.iew.rob_head_stall_class_0::IntDiv            0      0.00%      0.00% # Class of instruction blocking at head of ROB
system.cpu0.iew.rob_head_stall_class_0::FloatAdd            0      0.00%      0.00% # Class of instruction blocking at head of ROB
system.cpu0.iew.rob_head_stall_class_0::FloatCmp            0      0.00%      0.00% # Class of instruction blocking at head of ROB
system.cpu0.iew.rob_head_stall_class_0::FloatCvt            0      0.00%      0.00% # Class of instruction blocking at head of ROB
system.cpu0.iew.rob_head_stall_class_0::FloatMult            0      0.00%      0.00% # Class of instruction blocking at head of ROB
system.cpu0.iew.rob_head_stall_class_0::FloatMultAcc            0      0.00%      0.00% # Class of instruction blocking at head of ROB
system.cpu0.iew.rob_head_stall_class_0::FloatDiv            0      0.00%      0.00% # Class of instruction blocking at head of ROB
system.cpu0.iew.rob_head_stall_class_0::FloatMisc            0      0.00%      0.00% # Class of instruction blocking at head of ROB
system.cpu0.iew.rob_head_stall_class_0::FloatSqrt            0      0.00%      0.00% # Class of instruction blocking at head of ROB
system.cpu0.iew.rob_head_stall_class_0::SimdAdd            0      0.00%      0.00% # Class of instruction blocking at head of ROB
system.cpu0.iew.rob_head_stall_class_0::SimdAddAcc            0      0.00%      0.00% # Class of instruction blocking at head of ROB
system.cpu0.iew.rob_head_stall_class_0::SimdAlu            0      0.00%      0.00% # Class of instruction blocking at head of ROB
system.cpu0.iew.rob_head_stall_class_0::SimdCmp            0      0.00%      0.00% # Class of instruction blocking at head of ROB
system.cpu0.iew.rob_head_stall_class_0::SimdCvt            0      0.00%      0.00% # Class of instruction blocking at head of ROB
system.cpu0.iew.rob_head_stall_class_0::SimdMisc            0      0.00%      0.00% # Class of instruction blocking at head of ROB
system.cpu0.iew.rob_head_stall_class_0::SimdMult            0      0.00%      0.00% # Class of instruction blocking at head of ROB
system.cpu0.iew.rob_head_stall_class_0::SimdMultAcc            0      0.00%      0.00% # Class of instruction blocking at head of ROB
system.cpu0.iew.rob_head_stall_class_0::SimdShift            0      0.00%      0.00% # Class of instruction blocking at head of ROB
system.cpu0.iew.rob_head_stall_class_0::SimdShiftAcc            0      0.00%      0.00% # Class of instruction blocking at head of ROB
system.cpu0.iew.rob_head_stall_class_0::SimdDiv            0      0.00%      0.00% # Class of instruction blocking at head of ROB
system.cpu0.iew.rob_head_stall_class_0::SimdSqrt            0      0.00%      0.00% # Class of instruction blocking at head of ROB
system.cpu0.iew.rob_head_stall_class_0::SimdFloatAdd            0      0.00%      0.00% # Class of instruction blocking at head of ROB
system.cpu0.iew.rob_head_stall_class_0::SimdFloatAlu            0      0.00%      0.00% # Class of instruction blocking at head of ROB
system.cpu0.iew.rob_head_stall_class_0::SimdFloatCmp            0      0.00%      0.00% # Class of instruction blocking at head of ROB
system.cpu0.iew.rob_head_stall_class_0::SimdFloatCvt            0      0.00%      0.00% # Class of instruction blocking at head of ROB
system.cpu0.iew.rob_head_stall_class_0::SimdFloatDiv            0      0.00%      0.00% # Class of instruction blocking at head of ROB
system.cpu0.iew.rob_head_stall_class_0::SimdFloatMisc            0      0.00%      0.00% # Class of instruction blocking at head of ROB
system.cpu0.iew.rob_head_stall_class_0::SimdFloatMult            0      0.00%      0.00% # Class of instruction blocking at head of ROB
system.cpu0.iew.rob_head_stall_class_0::SimdFloatMultAcc            0      0.00%      0.00% # Class of instruction blocking at head of ROB
system.cpu0.iew.rob_head_stall_class_0::SimdFloatSqrt            0      0.00%      0.00% # Class of instruction blocking at head of ROB
system.cpu0.iew.rob_head_stall_class_0::SimdReduceAdd            0      0.00%      0.00% # Class of instruction blocking at head of ROB
system.cpu0.iew.rob_head_stall_class_0::SimdReduceAlu            0      0.00%      0.00% # Class of instruction blocking at head of ROB
system.cpu0.iew.rob_head_stall_class_0::SimdReduceCmp            0      0.00%      0.00% # Class of instruction blocking at head of ROB
system.cpu0.iew.rob_head_stall_class_0::SimdFloatReduceAdd            0      0.00%      0.00% # Class of instruction blocking at head of ROB
system.cpu0.iew.rob_head_stall_class_0::SimdFloatReduceCmp            0      0.00%      0.00% # Class of instruction blocking at head of ROB
system.cpu0.iew.rob_head_stall_class_0::SimdAes            0      0.00%      0.00% # Class of instruction blocking at head of ROB
system.cpu0.iew.rob_head_stall_class_0::SimdAesMix            0      0.00%      0.00% # Class of instruction blocking at head of ROB
system.cpu0.iew.rob_head_stall_class_0::SimdSha1Hash            0      0.00%      0.00% # Class of instruction blocking at head of ROB
system.cpu0.iew.rob_head_stall_class_0::SimdSha1Hash2            0      0.00%      0.00% # Class of instruction blocking at head of ROB
system.cpu0.iew.rob_head_stall_class_0::SimdSha256Hash            0      0.00%      0.00% # Class of instruction blocking at head of ROB
system.cpu0.iew.rob_head_stall_class_0::SimdSha256Hash2            0      0.00%      0.00% # Class of instruction blocking at head of ROB
system.cpu0.iew.rob_head_stall_class_0::SimdShaSigma2            0      0.00%      0.00% # Class of instruction blocking at head of ROB
system.cpu0.iew.rob_head_stall_class_0::SimdShaSigma3            0      0.00%      0.00% # Class of instruction blocking at head of ROB
system.cpu0.iew.rob_head_stall_class_0::SimdPredAlu            0      0.00%      0.00% # Class of instruction blocking at head of ROB
system.cpu0.iew.rob_head_stall_class_0::MemRead           36     25.17%     25.17% # Class of instruction blocking at head of ROB
system.cpu0.iew.rob_head_stall_class_0::MemWrite          107     74.82%     99.99% # Class of instruction blocking at head of ROB
system.cpu0.iew.rob_head_stall_class_0::FloatMemRead            0      0.00%     99.99% # Class of instruction blocking at head of ROB
system.cpu0.iew.rob_head_stall_class_0::FloatMemWrite            0      0.00%     99.99% # Class of instruction blocking at head of ROB
system.cpu0.iew.rob_head_stall_class_0::IprAccess            0      0.00%     99.99% # Class of instruction blocking at head of ROB
system.cpu0.iew.rob_head_stall_class_0::InstPrefetch            0      0.00%     99.99% # Class of instruction blocking at head of ROB
system.cpu0.iew.rob_head_stall_class_0::total          143                       # Class of instruction blocking at head of ROB
system.cpu0.iew.robfull                           143                       # number of stalls in the iew stage due to rob being full
system.cpu0.ipc                              0.116612                       # IPC: Instructions Per Cycle
system.cpu0.ipc_total                        0.116612                       # IPC: Total IPC of All Threads
system.cpu0.itb.accesses                            0                       # DTB accesses
system.cpu0.itb.hits                                0                       # DTB hits
system.cpu0.itb.misses                              0                       # DTB misses
system.cpu0.itb.read_accesses                       0                       # DTB read accesses
system.cpu0.itb.read_hits                           0                       # DTB read hits
system.cpu0.itb.read_misses                         0                       # DTB read misses
system.cpu0.itb.write_accesses                      0                       # DTB write accesses
system.cpu0.itb.write_hits                          0                       # DTB write hits
system.cpu0.itb.write_misses                        0                       # DTB write misses
system.cpu0.late_vector.backpressure_stalls          117                       # number of stalls due to backpressure
system.cpu0.late_vector.mesh_input_stalls            0                       # number of stalls due to no input from mesh
system.cpu0.late_vector.pipe_input_stalls         1117                       # number of stalls due to no input from fetch
system.cpu0.late_vector.revec_stalls                0                       # number of stalls due to revec
system.cpu0.numCycles                            1535                       # number of cpu cycles simulated
system.cpu0.numWorkItemsCompleted                   0                       # number of work items this cpu completed
system.cpu0.numWorkItemsStarted                     0                       # number of work items this cpu started
system.cpu0.num_committed_insts                   179                       # Number of Instructions Simulated
system.cpu0.pwrStateResidencyTicks::ON      292877000                       # Cumulative time (in ticks) in various power states
system.cpu0.vector.backpressure_stalls              0                       # number of stalls due to backpressure
system.cpu0.vector.mesh_input_stalls                0                       # number of stalls due to no input from mesh
system.cpu0.vector.pipe_input_stalls             1168                       # number of stalls due to no input from fetch
system.cpu0.vector.revec_stalls                     0                       # number of stalls due to revec
system.cpu0.workload.numSyscalls                    0                       # Number of system calls
system.cpu1.branchPred.BTBCorrect                   0                       # Number of correct BTB predictions (this stat may not work properly.
system.cpu1.branchPred.BTBHitPct             0.000000                       # BTB Hit Percentage
system.cpu1.branchPred.BTBHits                      0                       # Number of BTB hits
system.cpu1.branchPred.BTBLookups                  37                       # Number of BTB lookups
system.cpu1.branchPred.RASInCorrect                 0                       # Number of incorrect RAS predictions.
system.cpu1.branchPred.condIncorrect                1                       # Number of conditional branches incorrect
system.cpu1.branchPred.condPredicted               24                       # Number of conditional branches predicted
system.cpu1.branchPred.indirectHits                 0                       # Number of indirect target hits.
system.cpu1.branchPred.indirectLookups              3                       # Number of indirect predictor lookups.
system.cpu1.branchPred.indirectMisses               3                       # Number of indirect misses.
system.cpu1.branchPred.lookups                     37                       # Number of BP lookups
system.cpu1.branchPred.usedRAS                      0                       # Number of times the RAS was used to get a target.
system.cpu1.branchPredindirectMispredicted            0                       # Number of mispredicted indirect branches.
system.cpu1.commit.commit_stalls                    0                       # number of stalls in the commit stage due to insufficient credits
system.cpu1.cpi                              8.872832                       # CPI: Cycles Per Instruction
system.cpu1.cpi_total                        8.872832                       # CPI: Total CPI of All Threads
system.cpu1.dtb.accesses                            0                       # DTB accesses
system.cpu1.dtb.hits                                0                       # DTB hits
system.cpu1.dtb.misses                              0                       # DTB misses
system.cpu1.dtb.read_accesses                       0                       # DTB read accesses
system.cpu1.dtb.read_hits                           0                       # DTB read hits
system.cpu1.dtb.read_misses                         0                       # DTB read misses
system.cpu1.dtb.write_accesses                      0                       # DTB write accesses
system.cpu1.dtb.write_hits                          0                       # DTB write hits
system.cpu1.dtb.write_misses                        0                       # DTB write misses
system.cpu1.iew.dep_stall_insts_0::No_OpClass            1      0.58%      0.58% # Class of instruction blocked in Issue due to dependency
system.cpu1.iew.dep_stall_insts_0::IntAlu          164     95.90%     96.49% # Class of instruction blocked in Issue due to dependency
system.cpu1.iew.dep_stall_insts_0::IntMult            6      3.50%     99.99% # Class of instruction blocked in Issue due to dependency
system.cpu1.iew.dep_stall_insts_0::IntDiv            0      0.00%     99.99% # Class of instruction blocked in Issue due to dependency
system.cpu1.iew.dep_stall_insts_0::FloatAdd            0      0.00%     99.99% # Class of instruction blocked in Issue due to dependency
system.cpu1.iew.dep_stall_insts_0::FloatCmp            0      0.00%     99.99% # Class of instruction blocked in Issue due to dependency
system.cpu1.iew.dep_stall_insts_0::FloatCvt            0      0.00%     99.99% # Class of instruction blocked in Issue due to dependency
system.cpu1.iew.dep_stall_insts_0::FloatMult            0      0.00%     99.99% # Class of instruction blocked in Issue due to dependency
system.cpu1.iew.dep_stall_insts_0::FloatMultAcc            0      0.00%     99.99% # Class of instruction blocked in Issue due to dependency
system.cpu1.iew.dep_stall_insts_0::FloatDiv            0      0.00%     99.99% # Class of instruction blocked in Issue due to dependency
system.cpu1.iew.dep_stall_insts_0::FloatMisc            0      0.00%     99.99% # Class of instruction blocked in Issue due to dependency
system.cpu1.iew.dep_stall_insts_0::FloatSqrt            0      0.00%     99.99% # Class of instruction blocked in Issue due to dependency
system.cpu1.iew.dep_stall_insts_0::SimdAdd            0      0.00%     99.99% # Class of instruction blocked in Issue due to dependency
system.cpu1.iew.dep_stall_insts_0::SimdAddAcc            0      0.00%     99.99% # Class of instruction blocked in Issue due to dependency
system.cpu1.iew.dep_stall_insts_0::SimdAlu            0      0.00%     99.99% # Class of instruction blocked in Issue due to dependency
system.cpu1.iew.dep_stall_insts_0::SimdCmp            0      0.00%     99.99% # Class of instruction blocked in Issue due to dependency
system.cpu1.iew.dep_stall_insts_0::SimdCvt            0      0.00%     99.99% # Class of instruction blocked in Issue due to dependency
system.cpu1.iew.dep_stall_insts_0::SimdMisc            0      0.00%     99.99% # Class of instruction blocked in Issue due to dependency
system.cpu1.iew.dep_stall_insts_0::SimdMult            0      0.00%     99.99% # Class of instruction blocked in Issue due to dependency
system.cpu1.iew.dep_stall_insts_0::SimdMultAcc            0      0.00%     99.99% # Class of instruction blocked in Issue due to dependency
system.cpu1.iew.dep_stall_insts_0::SimdShift            0      0.00%     99.99% # Class of instruction blocked in Issue due to dependency
system.cpu1.iew.dep_stall_insts_0::SimdShiftAcc            0      0.00%     99.99% # Class of instruction blocked in Issue due to dependency
system.cpu1.iew.dep_stall_insts_0::SimdDiv            0      0.00%     99.99% # Class of instruction blocked in Issue due to dependency
system.cpu1.iew.dep_stall_insts_0::SimdSqrt            0      0.00%     99.99% # Class of instruction blocked in Issue due to dependency
system.cpu1.iew.dep_stall_insts_0::SimdFloatAdd            0      0.00%     99.99% # Class of instruction blocked in Issue due to dependency
system.cpu1.iew.dep_stall_insts_0::SimdFloatAlu            0      0.00%     99.99% # Class of instruction blocked in Issue due to dependency
system.cpu1.iew.dep_stall_insts_0::SimdFloatCmp            0      0.00%     99.99% # Class of instruction blocked in Issue due to dependency
system.cpu1.iew.dep_stall_insts_0::SimdFloatCvt            0      0.00%     99.99% # Class of instruction blocked in Issue due to dependency
system.cpu1.iew.dep_stall_insts_0::SimdFloatDiv            0      0.00%     99.99% # Class of instruction blocked in Issue due to dependency
system.cpu1.iew.dep_stall_insts_0::SimdFloatMisc            0      0.00%     99.99% # Class of instruction blocked in Issue due to dependency
system.cpu1.iew.dep_stall_insts_0::SimdFloatMult            0      0.00%     99.99% # Class of instruction blocked in Issue due to dependency
system.cpu1.iew.dep_stall_insts_0::SimdFloatMultAcc            0      0.00%     99.99% # Class of instruction blocked in Issue due to dependency
system.cpu1.iew.dep_stall_insts_0::SimdFloatSqrt            0      0.00%     99.99% # Class of instruction blocked in Issue due to dependency
system.cpu1.iew.dep_stall_insts_0::SimdReduceAdd            0      0.00%     99.99% # Class of instruction blocked in Issue due to dependency
system.cpu1.iew.dep_stall_insts_0::SimdReduceAlu            0      0.00%     99.99% # Class of instruction blocked in Issue due to dependency
system.cpu1.iew.dep_stall_insts_0::SimdReduceCmp            0      0.00%     99.99% # Class of instruction blocked in Issue due to dependency
system.cpu1.iew.dep_stall_insts_0::SimdFloatReduceAdd            0      0.00%     99.99% # Class of instruction blocked in Issue due to dependency
system.cpu1.iew.dep_stall_insts_0::SimdFloatReduceCmp            0      0.00%     99.99% # Class of instruction blocked in Issue due to dependency
system.cpu1.iew.dep_stall_insts_0::SimdAes            0      0.00%     99.99% # Class of instruction blocked in Issue due to dependency
system.cpu1.iew.dep_stall_insts_0::SimdAesMix            0      0.00%     99.99% # Class of instruction blocked in Issue due to dependency
system.cpu1.iew.dep_stall_insts_0::SimdSha1Hash            0      0.00%     99.99% # Class of instruction blocked in Issue due to dependency
system.cpu1.iew.dep_stall_insts_0::SimdSha1Hash2            0      0.00%     99.99% # Class of instruction blocked in Issue due to dependency
system.cpu1.iew.dep_stall_insts_0::SimdSha256Hash            0      0.00%     99.99% # Class of instruction blocked in Issue due to dependency
system.cpu1.iew.dep_stall_insts_0::SimdSha256Hash2            0      0.00%     99.99% # Class of instruction blocked in Issue due to dependency
system.cpu1.iew.dep_stall_insts_0::SimdShaSigma2            0      0.00%     99.99% # Class of instruction blocked in Issue due to dependency
system.cpu1.iew.dep_stall_insts_0::SimdShaSigma3            0      0.00%     99.99% # Class of instruction blocked in Issue due to dependency
system.cpu1.iew.dep_stall_insts_0::SimdPredAlu            0      0.00%     99.99% # Class of instruction blocked in Issue due to dependency
system.cpu1.iew.dep_stall_insts_0::MemRead            0      0.00%     99.99% # Class of instruction blocked in Issue due to dependency
system.cpu1.iew.dep_stall_insts_0::MemWrite            0      0.00%     99.99% # Class of instruction blocked in Issue due to dependency
system.cpu1.iew.dep_stall_insts_0::FloatMemRead            0      0.00%     99.99% # Class of instruction blocked in Issue due to dependency
system.cpu1.iew.dep_stall_insts_0::FloatMemWrite            0      0.00%     99.99% # Class of instruction blocked in Issue due to dependency
system.cpu1.iew.dep_stall_insts_0::IprAccess            0      0.00%     99.99% # Class of instruction blocked in Issue due to dependency
system.cpu1.iew.dep_stall_insts_0::InstPrefetch            0      0.00%     99.99% # Class of instruction blocked in Issue due to dependency
system.cpu1.iew.dep_stall_insts_0::total          171                       # Class of instruction blocked in Issue due to dependency
system.cpu1.iew.iew_stalls_control                  0                       # number of stalls in the iew stage due to stalling for control flow insts in pipeline
system.cpu1.iew.iew_stalls_dep                    171                       # number of stalls in the iew stage due to dependency
system.cpu1.iew.iew_stalls_execbusy                 0                       # number of stalls in the iew stage due to exec stage being busy
system.cpu1.iew.iew_stalls_membarrier               0                       # number of stalls in the iew stage due to pending mem barrier
system.cpu1.iew.iew_stalls_revec                    0                       # number of stalls in the iew stage due to stalling for revec in pipeline
system.cpu1.iew.rob_head_stall_class_0::No_OpClass            0      0.00%      0.00% # Class of instruction blocking at head of ROB
system.cpu1.iew.rob_head_stall_class_0::IntAlu            0      0.00%      0.00% # Class of instruction blocking at head of ROB
system.cpu1.iew.rob_head_stall_class_0::IntMult            0      0.00%      0.00% # Class of instruction blocking at head of ROB
system.cpu1.iew.rob_head_stall_class_0::IntDiv            0      0.00%      0.00% # Class of instruction blocking at head of ROB
system.cpu1.iew.rob_head_stall_class_0::FloatAdd            0      0.00%      0.00% # Class of instruction blocking at head of ROB
system.cpu1.iew.rob_head_stall_class_0::FloatCmp            0      0.00%      0.00% # Class of instruction blocking at head of ROB
system.cpu1.iew.rob_head_stall_class_0::FloatCvt            0      0.00%      0.00% # Class of instruction blocking at head of ROB
system.cpu1.iew.rob_head_stall_class_0::FloatMult            0      0.00%      0.00% # Class of instruction blocking at head of ROB
system.cpu1.iew.rob_head_stall_class_0::FloatMultAcc            0      0.00%      0.00% # Class of instruction blocking at head of ROB
system.cpu1.iew.rob_head_stall_class_0::FloatDiv            0      0.00%      0.00% # Class of instruction blocking at head of ROB
system.cpu1.iew.rob_head_stall_class_0::FloatMisc            0      0.00%      0.00% # Class of instruction blocking at head of ROB
system.cpu1.iew.rob_head_stall_class_0::FloatSqrt            0      0.00%      0.00% # Class of instruction blocking at head of ROB
system.cpu1.iew.rob_head_stall_class_0::SimdAdd            0      0.00%      0.00% # Class of instruction blocking at head of ROB
system.cpu1.iew.rob_head_stall_class_0::SimdAddAcc            0      0.00%      0.00% # Class of instruction blocking at head of ROB
system.cpu1.iew.rob_head_stall_class_0::SimdAlu            0      0.00%      0.00% # Class of instruction blocking at head of ROB
system.cpu1.iew.rob_head_stall_class_0::SimdCmp            0      0.00%      0.00% # Class of instruction blocking at head of ROB
system.cpu1.iew.rob_head_stall_class_0::SimdCvt            0      0.00%      0.00% # Class of instruction blocking at head of ROB
system.cpu1.iew.rob_head_stall_class_0::SimdMisc            0      0.00%      0.00% # Class of instruction blocking at head of ROB
system.cpu1.iew.rob_head_stall_class_0::SimdMult            0      0.00%      0.00% # Class of instruction blocking at head of ROB
system.cpu1.iew.rob_head_stall_class_0::SimdMultAcc            0      0.00%      0.00% # Class of instruction blocking at head of ROB
system.cpu1.iew.rob_head_stall_class_0::SimdShift            0      0.00%      0.00% # Class of instruction blocking at head of ROB
system.cpu1.iew.rob_head_stall_class_0::SimdShiftAcc            0      0.00%      0.00% # Class of instruction blocking at head of ROB
system.cpu1.iew.rob_head_stall_class_0::SimdDiv            0      0.00%      0.00% # Class of instruction blocking at head of ROB
system.cpu1.iew.rob_head_stall_class_0::SimdSqrt            0      0.00%      0.00% # Class of instruction blocking at head of ROB
system.cpu1.iew.rob_head_stall_class_0::SimdFloatAdd            0      0.00%      0.00% # Class of instruction blocking at head of ROB
system.cpu1.iew.rob_head_stall_class_0::SimdFloatAlu            0      0.00%      0.00% # Class of instruction blocking at head of ROB
system.cpu1.iew.rob_head_stall_class_0::SimdFloatCmp            0      0.00%      0.00% # Class of instruction blocking at head of ROB
system.cpu1.iew.rob_head_stall_class_0::SimdFloatCvt            0      0.00%      0.00% # Class of instruction blocking at head of ROB
system.cpu1.iew.rob_head_stall_class_0::SimdFloatDiv            0      0.00%      0.00% # Class of instruction blocking at head of ROB
system.cpu1.iew.rob_head_stall_class_0::SimdFloatMisc            0      0.00%      0.00% # Class of instruction blocking at head of ROB
system.cpu1.iew.rob_head_stall_class_0::SimdFloatMult            0      0.00%      0.00% # Class of instruction blocking at head of ROB
system.cpu1.iew.rob_head_stall_class_0::SimdFloatMultAcc            0      0.00%      0.00% # Class of instruction blocking at head of ROB
system.cpu1.iew.rob_head_stall_class_0::SimdFloatSqrt            0      0.00%      0.00% # Class of instruction blocking at head of ROB
system.cpu1.iew.rob_head_stall_class_0::SimdReduceAdd            0      0.00%      0.00% # Class of instruction blocking at head of ROB
system.cpu1.iew.rob_head_stall_class_0::SimdReduceAlu            0      0.00%      0.00% # Class of instruction blocking at head of ROB
system.cpu1.iew.rob_head_stall_class_0::SimdReduceCmp            0      0.00%      0.00% # Class of instruction blocking at head of ROB
system.cpu1.iew.rob_head_stall_class_0::SimdFloatReduceAdd            0      0.00%      0.00% # Class of instruction blocking at head of ROB
system.cpu1.iew.rob_head_stall_class_0::SimdFloatReduceCmp            0      0.00%      0.00% # Class of instruction blocking at head of ROB
system.cpu1.iew.rob_head_stall_class_0::SimdAes            0      0.00%      0.00% # Class of instruction blocking at head of ROB
system.cpu1.iew.rob_head_stall_class_0::SimdAesMix            0      0.00%      0.00% # Class of instruction blocking at head of ROB
system.cpu1.iew.rob_head_stall_class_0::SimdSha1Hash            0      0.00%      0.00% # Class of instruction blocking at head of ROB
system.cpu1.iew.rob_head_stall_class_0::SimdSha1Hash2            0      0.00%      0.00% # Class of instruction blocking at head of ROB
system.cpu1.iew.rob_head_stall_class_0::SimdSha256Hash            0      0.00%      0.00% # Class of instruction blocking at head of ROB
system.cpu1.iew.rob_head_stall_class_0::SimdSha256Hash2            0      0.00%      0.00% # Class of instruction blocking at head of ROB
system.cpu1.iew.rob_head_stall_class_0::SimdShaSigma2            0      0.00%      0.00% # Class of instruction blocking at head of ROB
system.cpu1.iew.rob_head_stall_class_0::SimdShaSigma3            0      0.00%      0.00% # Class of instruction blocking at head of ROB
system.cpu1.iew.rob_head_stall_class_0::SimdPredAlu            0      0.00%      0.00% # Class of instruction blocking at head of ROB
system.cpu1.iew.rob_head_stall_class_0::MemRead            0      0.00%      0.00% # Class of instruction blocking at head of ROB
system.cpu1.iew.rob_head_stall_class_0::MemWrite           23    100.00%    100.00% # Class of instruction blocking at head of ROB
system.cpu1.iew.rob_head_stall_class_0::FloatMemRead            0      0.00%    100.00% # Class of instruction blocking at head of ROB
system.cpu1.iew.rob_head_stall_class_0::FloatMemWrite            0      0.00%    100.00% # Class of instruction blocking at head of ROB
system.cpu1.iew.rob_head_stall_class_0::IprAccess            0      0.00%    100.00% # Class of instruction blocking at head of ROB
system.cpu1.iew.rob_head_stall_class_0::InstPrefetch            0      0.00%    100.00% # Class of instruction blocking at head of ROB
system.cpu1.iew.rob_head_stall_class_0::total           23                       # Class of instruction blocking at head of ROB
system.cpu1.iew.robfull                            23                       # number of stalls in the iew stage due to rob being full
system.cpu1.ipc                              0.112703                       # IPC: Instructions Per Cycle
system.cpu1.ipc_total                        0.112703                       # IPC: Total IPC of All Threads
system.cpu1.itb.accesses                            0                       # DTB accesses
system.cpu1.itb.hits                                0                       # DTB hits
system.cpu1.itb.misses                              0                       # DTB misses
system.cpu1.itb.read_accesses                       0                       # DTB read accesses
system.cpu1.itb.read_hits                           0                       # DTB read hits
system.cpu1.itb.read_misses                         0                       # DTB read misses
system.cpu1.itb.write_accesses                      0                       # DTB write accesses
system.cpu1.itb.write_hits                          0                       # DTB write hits
system.cpu1.itb.write_misses                        0                       # DTB write misses
system.cpu1.late_vector.backpressure_stalls            0                       # number of stalls due to backpressure
system.cpu1.late_vector.mesh_input_stalls            0                       # number of stalls due to no input from mesh
system.cpu1.late_vector.pipe_input_stalls         1134                       # number of stalls due to no input from fetch
system.cpu1.late_vector.revec_stalls                0                       # number of stalls due to revec
system.cpu1.numCycles                            1535                       # number of cpu cycles simulated
system.cpu1.numWorkItemsCompleted                   0                       # number of work items this cpu completed
system.cpu1.numWorkItemsStarted                     0                       # number of work items this cpu started
system.cpu1.num_committed_insts                   173                       # Number of Instructions Simulated
system.cpu1.pwrStateResidencyTicks::ON      292877000                       # Cumulative time (in ticks) in various power states
system.cpu1.vector.backpressure_stalls              0                       # number of stalls due to backpressure
system.cpu1.vector.mesh_input_stalls             1089                       # number of stalls due to no input from mesh
system.cpu1.vector.pipe_input_stalls                0                       # number of stalls due to no input from fetch
system.cpu1.vector.revec_stalls                     0                       # number of stalls due to revec
system.cpu2.branchPred.BTBCorrect                   0                       # Number of correct BTB predictions (this stat may not work properly.
system.cpu2.branchPred.BTBHitPct             0.000000                       # BTB Hit Percentage
system.cpu2.branchPred.BTBHits                      0                       # Number of BTB hits
system.cpu2.branchPred.BTBLookups                  38                       # Number of BTB lookups
system.cpu2.branchPred.RASInCorrect                 0                       # Number of incorrect RAS predictions.
system.cpu2.branchPred.condIncorrect                1                       # Number of conditional branches incorrect
system.cpu2.branchPred.condPredicted               24                       # Number of conditional branches predicted
system.cpu2.branchPred.indirectHits                 0                       # Number of indirect target hits.
system.cpu2.branchPred.indirectLookups              3                       # Number of indirect predictor lookups.
system.cpu2.branchPred.indirectMisses               3                       # Number of indirect misses.
system.cpu2.branchPred.lookups                     38                       # Number of BP lookups
system.cpu2.branchPred.usedRAS                      0                       # Number of times the RAS was used to get a target.
system.cpu2.branchPredindirectMispredicted            0                       # Number of mispredicted indirect branches.
system.cpu2.commit.commit_stalls                    0                       # number of stalls in the commit stage due to insufficient credits
system.cpu2.cpi                              8.527777                       # CPI: Cycles Per Instruction
system.cpu2.cpi_total                        8.527777                       # CPI: Total CPI of All Threads
system.cpu2.dtb.accesses                            0                       # DTB accesses
system.cpu2.dtb.hits                                0                       # DTB hits
system.cpu2.dtb.misses                              0                       # DTB misses
system.cpu2.dtb.read_accesses                       0                       # DTB read accesses
system.cpu2.dtb.read_hits                           0                       # DTB read hits
system.cpu2.dtb.read_misses                         0                       # DTB read misses
system.cpu2.dtb.write_accesses                      0                       # DTB write accesses
system.cpu2.dtb.write_hits                          0                       # DTB write hits
system.cpu2.dtb.write_misses                        0                       # DTB write misses
system.cpu2.iew.dep_stall_insts_0::No_OpClass            0      0.00%      0.00% # Class of instruction blocked in Issue due to dependency
system.cpu2.iew.dep_stall_insts_0::IntAlu          135     95.74%     95.74% # Class of instruction blocked in Issue due to dependency
system.cpu2.iew.dep_stall_insts_0::IntMult            6      4.25%     99.99% # Class of instruction blocked in Issue due to dependency
system.cpu2.iew.dep_stall_insts_0::IntDiv            0      0.00%     99.99% # Class of instruction blocked in Issue due to dependency
system.cpu2.iew.dep_stall_insts_0::FloatAdd            0      0.00%     99.99% # Class of instruction blocked in Issue due to dependency
system.cpu2.iew.dep_stall_insts_0::FloatCmp            0      0.00%     99.99% # Class of instruction blocked in Issue due to dependency
system.cpu2.iew.dep_stall_insts_0::FloatCvt            0      0.00%     99.99% # Class of instruction blocked in Issue due to dependency
system.cpu2.iew.dep_stall_insts_0::FloatMult            0      0.00%     99.99% # Class of instruction blocked in Issue due to dependency
system.cpu2.iew.dep_stall_insts_0::FloatMultAcc            0      0.00%     99.99% # Class of instruction blocked in Issue due to dependency
system.cpu2.iew.dep_stall_insts_0::FloatDiv            0      0.00%     99.99% # Class of instruction blocked in Issue due to dependency
system.cpu2.iew.dep_stall_insts_0::FloatMisc            0      0.00%     99.99% # Class of instruction blocked in Issue due to dependency
system.cpu2.iew.dep_stall_insts_0::FloatSqrt            0      0.00%     99.99% # Class of instruction blocked in Issue due to dependency
system.cpu2.iew.dep_stall_insts_0::SimdAdd            0      0.00%     99.99% # Class of instruction blocked in Issue due to dependency
system.cpu2.iew.dep_stall_insts_0::SimdAddAcc            0      0.00%     99.99% # Class of instruction blocked in Issue due to dependency
system.cpu2.iew.dep_stall_insts_0::SimdAlu            0      0.00%     99.99% # Class of instruction blocked in Issue due to dependency
system.cpu2.iew.dep_stall_insts_0::SimdCmp            0      0.00%     99.99% # Class of instruction blocked in Issue due to dependency
system.cpu2.iew.dep_stall_insts_0::SimdCvt            0      0.00%     99.99% # Class of instruction blocked in Issue due to dependency
system.cpu2.iew.dep_stall_insts_0::SimdMisc            0      0.00%     99.99% # Class of instruction blocked in Issue due to dependency
system.cpu2.iew.dep_stall_insts_0::SimdMult            0      0.00%     99.99% # Class of instruction blocked in Issue due to dependency
system.cpu2.iew.dep_stall_insts_0::SimdMultAcc            0      0.00%     99.99% # Class of instruction blocked in Issue due to dependency
system.cpu2.iew.dep_stall_insts_0::SimdShift            0      0.00%     99.99% # Class of instruction blocked in Issue due to dependency
system.cpu2.iew.dep_stall_insts_0::SimdShiftAcc            0      0.00%     99.99% # Class of instruction blocked in Issue due to dependency
system.cpu2.iew.dep_stall_insts_0::SimdDiv            0      0.00%     99.99% # Class of instruction blocked in Issue due to dependency
system.cpu2.iew.dep_stall_insts_0::SimdSqrt            0      0.00%     99.99% # Class of instruction blocked in Issue due to dependency
system.cpu2.iew.dep_stall_insts_0::SimdFloatAdd            0      0.00%     99.99% # Class of instruction blocked in Issue due to dependency
system.cpu2.iew.dep_stall_insts_0::SimdFloatAlu            0      0.00%     99.99% # Class of instruction blocked in Issue due to dependency
system.cpu2.iew.dep_stall_insts_0::SimdFloatCmp            0      0.00%     99.99% # Class of instruction blocked in Issue due to dependency
system.cpu2.iew.dep_stall_insts_0::SimdFloatCvt            0      0.00%     99.99% # Class of instruction blocked in Issue due to dependency
system.cpu2.iew.dep_stall_insts_0::SimdFloatDiv            0      0.00%     99.99% # Class of instruction blocked in Issue due to dependency
system.cpu2.iew.dep_stall_insts_0::SimdFloatMisc            0      0.00%     99.99% # Class of instruction blocked in Issue due to dependency
system.cpu2.iew.dep_stall_insts_0::SimdFloatMult            0      0.00%     99.99% # Class of instruction blocked in Issue due to dependency
system.cpu2.iew.dep_stall_insts_0::SimdFloatMultAcc            0      0.00%     99.99% # Class of instruction blocked in Issue due to dependency
system.cpu2.iew.dep_stall_insts_0::SimdFloatSqrt            0      0.00%     99.99% # Class of instruction blocked in Issue due to dependency
system.cpu2.iew.dep_stall_insts_0::SimdReduceAdd            0      0.00%     99.99% # Class of instruction blocked in Issue due to dependency
system.cpu2.iew.dep_stall_insts_0::SimdReduceAlu            0      0.00%     99.99% # Class of instruction blocked in Issue due to dependency
system.cpu2.iew.dep_stall_insts_0::SimdReduceCmp            0      0.00%     99.99% # Class of instruction blocked in Issue due to dependency
system.cpu2.iew.dep_stall_insts_0::SimdFloatReduceAdd            0      0.00%     99.99% # Class of instruction blocked in Issue due to dependency
system.cpu2.iew.dep_stall_insts_0::SimdFloatReduceCmp            0      0.00%     99.99% # Class of instruction blocked in Issue due to dependency
system.cpu2.iew.dep_stall_insts_0::SimdAes            0      0.00%     99.99% # Class of instruction blocked in Issue due to dependency
system.cpu2.iew.dep_stall_insts_0::SimdAesMix            0      0.00%     99.99% # Class of instruction blocked in Issue due to dependency
system.cpu2.iew.dep_stall_insts_0::SimdSha1Hash            0      0.00%     99.99% # Class of instruction blocked in Issue due to dependency
system.cpu2.iew.dep_stall_insts_0::SimdSha1Hash2            0      0.00%     99.99% # Class of instruction blocked in Issue due to dependency
system.cpu2.iew.dep_stall_insts_0::SimdSha256Hash            0      0.00%     99.99% # Class of instruction blocked in Issue due to dependency
system.cpu2.iew.dep_stall_insts_0::SimdSha256Hash2            0      0.00%     99.99% # Class of instruction blocked in Issue due to dependency
system.cpu2.iew.dep_stall_insts_0::SimdShaSigma2            0      0.00%     99.99% # Class of instruction blocked in Issue due to dependency
system.cpu2.iew.dep_stall_insts_0::SimdShaSigma3            0      0.00%     99.99% # Class of instruction blocked in Issue due to dependency
system.cpu2.iew.dep_stall_insts_0::SimdPredAlu            0      0.00%     99.99% # Class of instruction blocked in Issue due to dependency
system.cpu2.iew.dep_stall_insts_0::MemRead            0      0.00%     99.99% # Class of instruction blocked in Issue due to dependency
system.cpu2.iew.dep_stall_insts_0::MemWrite            0      0.00%     99.99% # Class of instruction blocked in Issue due to dependency
system.cpu2.iew.dep_stall_insts_0::FloatMemRead            0      0.00%     99.99% # Class of instruction blocked in Issue due to dependency
system.cpu2.iew.dep_stall_insts_0::FloatMemWrite            0      0.00%     99.99% # Class of instruction blocked in Issue due to dependency
system.cpu2.iew.dep_stall_insts_0::IprAccess            0      0.00%     99.99% # Class of instruction blocked in Issue due to dependency
system.cpu2.iew.dep_stall_insts_0::InstPrefetch            0      0.00%     99.99% # Class of instruction blocked in Issue due to dependency
system.cpu2.iew.dep_stall_insts_0::total          141                       # Class of instruction blocked in Issue due to dependency
system.cpu2.iew.iew_stalls_control                  0                       # number of stalls in the iew stage due to stalling for control flow insts in pipeline
system.cpu2.iew.iew_stalls_dep                    141                       # number of stalls in the iew stage due to dependency
system.cpu2.iew.iew_stalls_execbusy                 0                       # number of stalls in the iew stage due to exec stage being busy
system.cpu2.iew.iew_stalls_membarrier               0                       # number of stalls in the iew stage due to pending mem barrier
system.cpu2.iew.iew_stalls_revec                    0                       # number of stalls in the iew stage due to stalling for revec in pipeline
system.cpu2.iew.rob_head_stall_class_0::No_OpClass            0      0.00%      0.00% # Class of instruction blocking at head of ROB
system.cpu2.iew.rob_head_stall_class_0::IntAlu            0      0.00%      0.00% # Class of instruction blocking at head of ROB
system.cpu2.iew.rob_head_stall_class_0::IntMult            0      0.00%      0.00% # Class of instruction blocking at head of ROB
system.cpu2.iew.rob_head_stall_class_0::IntDiv            0      0.00%      0.00% # Class of instruction blocking at head of ROB
system.cpu2.iew.rob_head_stall_class_0::FloatAdd            0      0.00%      0.00% # Class of instruction blocking at head of ROB
system.cpu2.iew.rob_head_stall_class_0::FloatCmp            0      0.00%      0.00% # Class of instruction blocking at head of ROB
system.cpu2.iew.rob_head_stall_class_0::FloatCvt            0      0.00%      0.00% # Class of instruction blocking at head of ROB
system.cpu2.iew.rob_head_stall_class_0::FloatMult            0      0.00%      0.00% # Class of instruction blocking at head of ROB
system.cpu2.iew.rob_head_stall_class_0::FloatMultAcc            0      0.00%      0.00% # Class of instruction blocking at head of ROB
system.cpu2.iew.rob_head_stall_class_0::FloatDiv            0      0.00%      0.00% # Class of instruction blocking at head of ROB
system.cpu2.iew.rob_head_stall_class_0::FloatMisc            0      0.00%      0.00% # Class of instruction blocking at head of ROB
system.cpu2.iew.rob_head_stall_class_0::FloatSqrt            0      0.00%      0.00% # Class of instruction blocking at head of ROB
system.cpu2.iew.rob_head_stall_class_0::SimdAdd            0      0.00%      0.00% # Class of instruction blocking at head of ROB
system.cpu2.iew.rob_head_stall_class_0::SimdAddAcc            0      0.00%      0.00% # Class of instruction blocking at head of ROB
system.cpu2.iew.rob_head_stall_class_0::SimdAlu            0      0.00%      0.00% # Class of instruction blocking at head of ROB
system.cpu2.iew.rob_head_stall_class_0::SimdCmp            0      0.00%      0.00% # Class of instruction blocking at head of ROB
system.cpu2.iew.rob_head_stall_class_0::SimdCvt            0      0.00%      0.00% # Class of instruction blocking at head of ROB
system.cpu2.iew.rob_head_stall_class_0::SimdMisc            0      0.00%      0.00% # Class of instruction blocking at head of ROB
system.cpu2.iew.rob_head_stall_class_0::SimdMult            0      0.00%      0.00% # Class of instruction blocking at head of ROB
system.cpu2.iew.rob_head_stall_class_0::SimdMultAcc            0      0.00%      0.00% # Class of instruction blocking at head of ROB
system.cpu2.iew.rob_head_stall_class_0::SimdShift            0      0.00%      0.00% # Class of instruction blocking at head of ROB
system.cpu2.iew.rob_head_stall_class_0::SimdShiftAcc            0      0.00%      0.00% # Class of instruction blocking at head of ROB
system.cpu2.iew.rob_head_stall_class_0::SimdDiv            0      0.00%      0.00% # Class of instruction blocking at head of ROB
system.cpu2.iew.rob_head_stall_class_0::SimdSqrt            0      0.00%      0.00% # Class of instruction blocking at head of ROB
system.cpu2.iew.rob_head_stall_class_0::SimdFloatAdd            0      0.00%      0.00% # Class of instruction blocking at head of ROB
system.cpu2.iew.rob_head_stall_class_0::SimdFloatAlu            0      0.00%      0.00% # Class of instruction blocking at head of ROB
system.cpu2.iew.rob_head_stall_class_0::SimdFloatCmp            0      0.00%      0.00% # Class of instruction blocking at head of ROB
system.cpu2.iew.rob_head_stall_class_0::SimdFloatCvt            0      0.00%      0.00% # Class of instruction blocking at head of ROB
system.cpu2.iew.rob_head_stall_class_0::SimdFloatDiv            0      0.00%      0.00% # Class of instruction blocking at head of ROB
system.cpu2.iew.rob_head_stall_class_0::SimdFloatMisc            0      0.00%      0.00% # Class of instruction blocking at head of ROB
system.cpu2.iew.rob_head_stall_class_0::SimdFloatMult            0      0.00%      0.00% # Class of instruction blocking at head of ROB
system.cpu2.iew.rob_head_stall_class_0::SimdFloatMultAcc            0      0.00%      0.00% # Class of instruction blocking at head of ROB
system.cpu2.iew.rob_head_stall_class_0::SimdFloatSqrt            0      0.00%      0.00% # Class of instruction blocking at head of ROB
system.cpu2.iew.rob_head_stall_class_0::SimdReduceAdd            0      0.00%      0.00% # Class of instruction blocking at head of ROB
system.cpu2.iew.rob_head_stall_class_0::SimdReduceAlu            0      0.00%      0.00% # Class of instruction blocking at head of ROB
system.cpu2.iew.rob_head_stall_class_0::SimdReduceCmp            0      0.00%      0.00% # Class of instruction blocking at head of ROB
system.cpu2.iew.rob_head_stall_class_0::SimdFloatReduceAdd            0      0.00%      0.00% # Class of instruction blocking at head of ROB
system.cpu2.iew.rob_head_stall_class_0::SimdFloatReduceCmp            0      0.00%      0.00% # Class of instruction blocking at head of ROB
system.cpu2.iew.rob_head_stall_class_0::SimdAes            0      0.00%      0.00% # Class of instruction blocking at head of ROB
system.cpu2.iew.rob_head_stall_class_0::SimdAesMix            0      0.00%      0.00% # Class of instruction blocking at head of ROB
system.cpu2.iew.rob_head_stall_class_0::SimdSha1Hash            0      0.00%      0.00% # Class of instruction blocking at head of ROB
system.cpu2.iew.rob_head_stall_class_0::SimdSha1Hash2            0      0.00%      0.00% # Class of instruction blocking at head of ROB
system.cpu2.iew.rob_head_stall_class_0::SimdSha256Hash            0      0.00%      0.00% # Class of instruction blocking at head of ROB
system.cpu2.iew.rob_head_stall_class_0::SimdSha256Hash2            0      0.00%      0.00% # Class of instruction blocking at head of ROB
system.cpu2.iew.rob_head_stall_class_0::SimdShaSigma2            0      0.00%      0.00% # Class of instruction blocking at head of ROB
system.cpu2.iew.rob_head_stall_class_0::SimdShaSigma3            0      0.00%      0.00% # Class of instruction blocking at head of ROB
system.cpu2.iew.rob_head_stall_class_0::SimdPredAlu            0      0.00%      0.00% # Class of instruction blocking at head of ROB
system.cpu2.iew.rob_head_stall_class_0::MemRead            0      0.00%      0.00% # Class of instruction blocking at head of ROB
system.cpu2.iew.rob_head_stall_class_0::MemWrite           15    100.00%    100.00% # Class of instruction blocking at head of ROB
system.cpu2.iew.rob_head_stall_class_0::FloatMemRead            0      0.00%    100.00% # Class of instruction blocking at head of ROB
system.cpu2.iew.rob_head_stall_class_0::FloatMemWrite            0      0.00%    100.00% # Class of instruction blocking at head of ROB
system.cpu2.iew.rob_head_stall_class_0::IprAccess            0      0.00%    100.00% # Class of instruction blocking at head of ROB
system.cpu2.iew.rob_head_stall_class_0::InstPrefetch            0      0.00%    100.00% # Class of instruction blocking at head of ROB
system.cpu2.iew.rob_head_stall_class_0::total           15                       # Class of instruction blocking at head of ROB
system.cpu2.iew.robfull                            15                       # number of stalls in the iew stage due to rob being full
system.cpu2.ipc                              0.117263                       # IPC: Instructions Per Cycle
system.cpu2.ipc_total                        0.117263                       # IPC: Total IPC of All Threads
system.cpu2.itb.accesses                            0                       # DTB accesses
system.cpu2.itb.hits                                0                       # DTB hits
system.cpu2.itb.misses                              0                       # DTB misses
system.cpu2.itb.read_accesses                       0                       # DTB read accesses
system.cpu2.itb.read_hits                           0                       # DTB read hits
system.cpu2.itb.read_misses                         0                       # DTB read misses
system.cpu2.itb.write_accesses                      0                       # DTB write accesses
system.cpu2.itb.write_hits                          0                       # DTB write hits
system.cpu2.itb.write_misses                        0                       # DTB write misses
system.cpu2.late_vector.backpressure_stalls            0                       # number of stalls due to backpressure
system.cpu2.late_vector.mesh_input_stalls            0                       # number of stalls due to no input from mesh
system.cpu2.late_vector.pipe_input_stalls         1145                       # number of stalls due to no input from fetch
system.cpu2.late_vector.revec_stalls                0                       # number of stalls due to revec
system.cpu2.numCycles                            1535                       # number of cpu cycles simulated
system.cpu2.numWorkItemsCompleted                   0                       # number of work items this cpu completed
system.cpu2.numWorkItemsStarted                     0                       # number of work items this cpu started
system.cpu2.num_committed_insts                   180                       # Number of Instructions Simulated
system.cpu2.pwrStateResidencyTicks::ON      292877000                       # Cumulative time (in ticks) in various power states
system.cpu2.vector.backpressure_stalls              0                       # number of stalls due to backpressure
system.cpu2.vector.mesh_input_stalls             1123                       # number of stalls due to no input from mesh
system.cpu2.vector.pipe_input_stalls                0                       # number of stalls due to no input from fetch
system.cpu2.vector.revec_stalls                     0                       # number of stalls due to revec
system.cpu3.branchPred.BTBCorrect                   0                       # Number of correct BTB predictions (this stat may not work properly.
system.cpu3.branchPred.BTBHitPct             0.000000                       # BTB Hit Percentage
system.cpu3.branchPred.BTBHits                      0                       # Number of BTB hits
system.cpu3.branchPred.BTBLookups                  34                       # Number of BTB lookups
system.cpu3.branchPred.RASInCorrect                 0                       # Number of incorrect RAS predictions.
system.cpu3.branchPred.condIncorrect                1                       # Number of conditional branches incorrect
system.cpu3.branchPred.condPredicted               24                       # Number of conditional branches predicted
system.cpu3.branchPred.indirectHits                 0                       # Number of indirect target hits.
system.cpu3.branchPred.indirectLookups              3                       # Number of indirect predictor lookups.
system.cpu3.branchPred.indirectMisses               3                       # Number of indirect misses.
system.cpu3.branchPred.lookups                     37                       # Number of BP lookups
system.cpu3.branchPred.usedRAS                      0                       # Number of times the RAS was used to get a target.
system.cpu3.branchPredindirectMispredicted            0                       # Number of mispredicted indirect branches.
system.cpu3.commit.commit_stalls                    0                       # number of stalls in the commit stage due to insufficient credits
system.cpu3.cpi                              8.872832                       # CPI: Cycles Per Instruction
system.cpu3.cpi_total                        8.872832                       # CPI: Total CPI of All Threads
system.cpu3.dtb.accesses                            0                       # DTB accesses
system.cpu3.dtb.hits                                0                       # DTB hits
system.cpu3.dtb.misses                              0                       # DTB misses
system.cpu3.dtb.read_accesses                       0                       # DTB read accesses
system.cpu3.dtb.read_hits                           0                       # DTB read hits
system.cpu3.dtb.read_misses                         0                       # DTB read misses
system.cpu3.dtb.write_accesses                      0                       # DTB write accesses
system.cpu3.dtb.write_hits                          0                       # DTB write hits
system.cpu3.dtb.write_misses                        0                       # DTB write misses
system.cpu3.iew.dep_stall_insts_0::No_OpClass            0      0.00%      0.00% # Class of instruction blocked in Issue due to dependency
system.cpu3.iew.dep_stall_insts_0::IntAlu          149     96.12%     96.12% # Class of instruction blocked in Issue due to dependency
system.cpu3.iew.dep_stall_insts_0::IntMult            6      3.87%     99.99% # Class of instruction blocked in Issue due to dependency
system.cpu3.iew.dep_stall_insts_0::IntDiv            0      0.00%     99.99% # Class of instruction blocked in Issue due to dependency
system.cpu3.iew.dep_stall_insts_0::FloatAdd            0      0.00%     99.99% # Class of instruction blocked in Issue due to dependency
system.cpu3.iew.dep_stall_insts_0::FloatCmp            0      0.00%     99.99% # Class of instruction blocked in Issue due to dependency
system.cpu3.iew.dep_stall_insts_0::FloatCvt            0      0.00%     99.99% # Class of instruction blocked in Issue due to dependency
system.cpu3.iew.dep_stall_insts_0::FloatMult            0      0.00%     99.99% # Class of instruction blocked in Issue due to dependency
system.cpu3.iew.dep_stall_insts_0::FloatMultAcc            0      0.00%     99.99% # Class of instruction blocked in Issue due to dependency
system.cpu3.iew.dep_stall_insts_0::FloatDiv            0      0.00%     99.99% # Class of instruction blocked in Issue due to dependency
system.cpu3.iew.dep_stall_insts_0::FloatMisc            0      0.00%     99.99% # Class of instruction blocked in Issue due to dependency
system.cpu3.iew.dep_stall_insts_0::FloatSqrt            0      0.00%     99.99% # Class of instruction blocked in Issue due to dependency
system.cpu3.iew.dep_stall_insts_0::SimdAdd            0      0.00%     99.99% # Class of instruction blocked in Issue due to dependency
system.cpu3.iew.dep_stall_insts_0::SimdAddAcc            0      0.00%     99.99% # Class of instruction blocked in Issue due to dependency
system.cpu3.iew.dep_stall_insts_0::SimdAlu            0      0.00%     99.99% # Class of instruction blocked in Issue due to dependency
system.cpu3.iew.dep_stall_insts_0::SimdCmp            0      0.00%     99.99% # Class of instruction blocked in Issue due to dependency
system.cpu3.iew.dep_stall_insts_0::SimdCvt            0      0.00%     99.99% # Class of instruction blocked in Issue due to dependency
system.cpu3.iew.dep_stall_insts_0::SimdMisc            0      0.00%     99.99% # Class of instruction blocked in Issue due to dependency
system.cpu3.iew.dep_stall_insts_0::SimdMult            0      0.00%     99.99% # Class of instruction blocked in Issue due to dependency
system.cpu3.iew.dep_stall_insts_0::SimdMultAcc            0      0.00%     99.99% # Class of instruction blocked in Issue due to dependency
system.cpu3.iew.dep_stall_insts_0::SimdShift            0      0.00%     99.99% # Class of instruction blocked in Issue due to dependency
system.cpu3.iew.dep_stall_insts_0::SimdShiftAcc            0      0.00%     99.99% # Class of instruction blocked in Issue due to dependency
system.cpu3.iew.dep_stall_insts_0::SimdDiv            0      0.00%     99.99% # Class of instruction blocked in Issue due to dependency
system.cpu3.iew.dep_stall_insts_0::SimdSqrt            0      0.00%     99.99% # Class of instruction blocked in Issue due to dependency
system.cpu3.iew.dep_stall_insts_0::SimdFloatAdd            0      0.00%     99.99% # Class of instruction blocked in Issue due to dependency
system.cpu3.iew.dep_stall_insts_0::SimdFloatAlu            0      0.00%     99.99% # Class of instruction blocked in Issue due to dependency
system.cpu3.iew.dep_stall_insts_0::SimdFloatCmp            0      0.00%     99.99% # Class of instruction blocked in Issue due to dependency
system.cpu3.iew.dep_stall_insts_0::SimdFloatCvt            0      0.00%     99.99% # Class of instruction blocked in Issue due to dependency
system.cpu3.iew.dep_stall_insts_0::SimdFloatDiv            0      0.00%     99.99% # Class of instruction blocked in Issue due to dependency
system.cpu3.iew.dep_stall_insts_0::SimdFloatMisc            0      0.00%     99.99% # Class of instruction blocked in Issue due to dependency
system.cpu3.iew.dep_stall_insts_0::SimdFloatMult            0      0.00%     99.99% # Class of instruction blocked in Issue due to dependency
system.cpu3.iew.dep_stall_insts_0::SimdFloatMultAcc            0      0.00%     99.99% # Class of instruction blocked in Issue due to dependency
system.cpu3.iew.dep_stall_insts_0::SimdFloatSqrt            0      0.00%     99.99% # Class of instruction blocked in Issue due to dependency
system.cpu3.iew.dep_stall_insts_0::SimdReduceAdd            0      0.00%     99.99% # Class of instruction blocked in Issue due to dependency
system.cpu3.iew.dep_stall_insts_0::SimdReduceAlu            0      0.00%     99.99% # Class of instruction blocked in Issue due to dependency
system.cpu3.iew.dep_stall_insts_0::SimdReduceCmp            0      0.00%     99.99% # Class of instruction blocked in Issue due to dependency
system.cpu3.iew.dep_stall_insts_0::SimdFloatReduceAdd            0      0.00%     99.99% # Class of instruction blocked in Issue due to dependency
system.cpu3.iew.dep_stall_insts_0::SimdFloatReduceCmp            0      0.00%     99.99% # Class of instruction blocked in Issue due to dependency
system.cpu3.iew.dep_stall_insts_0::SimdAes            0      0.00%     99.99% # Class of instruction blocked in Issue due to dependency
system.cpu3.iew.dep_stall_insts_0::SimdAesMix            0      0.00%     99.99% # Class of instruction blocked in Issue due to dependency
system.cpu3.iew.dep_stall_insts_0::SimdSha1Hash            0      0.00%     99.99% # Class of instruction blocked in Issue due to dependency
system.cpu3.iew.dep_stall_insts_0::SimdSha1Hash2            0      0.00%     99.99% # Class of instruction blocked in Issue due to dependency
system.cpu3.iew.dep_stall_insts_0::SimdSha256Hash            0      0.00%     99.99% # Class of instruction blocked in Issue due to dependency
system.cpu3.iew.dep_stall_insts_0::SimdSha256Hash2            0      0.00%     99.99% # Class of instruction blocked in Issue due to dependency
system.cpu3.iew.dep_stall_insts_0::SimdShaSigma2            0      0.00%     99.99% # Class of instruction blocked in Issue due to dependency
system.cpu3.iew.dep_stall_insts_0::SimdShaSigma3            0      0.00%     99.99% # Class of instruction blocked in Issue due to dependency
system.cpu3.iew.dep_stall_insts_0::SimdPredAlu            0      0.00%     99.99% # Class of instruction blocked in Issue due to dependency
system.cpu3.iew.dep_stall_insts_0::MemRead            0      0.00%     99.99% # Class of instruction blocked in Issue due to dependency
system.cpu3.iew.dep_stall_insts_0::MemWrite            0      0.00%     99.99% # Class of instruction blocked in Issue due to dependency
system.cpu3.iew.dep_stall_insts_0::FloatMemRead            0      0.00%     99.99% # Class of instruction blocked in Issue due to dependency
system.cpu3.iew.dep_stall_insts_0::FloatMemWrite            0      0.00%     99.99% # Class of instruction blocked in Issue due to dependency
system.cpu3.iew.dep_stall_insts_0::IprAccess            0      0.00%     99.99% # Class of instruction blocked in Issue due to dependency
system.cpu3.iew.dep_stall_insts_0::InstPrefetch            0      0.00%     99.99% # Class of instruction blocked in Issue due to dependency
system.cpu3.iew.dep_stall_insts_0::total          155                       # Class of instruction blocked in Issue due to dependency
system.cpu3.iew.iew_stalls_control                  0                       # number of stalls in the iew stage due to stalling for control flow insts in pipeline
system.cpu3.iew.iew_stalls_dep                    155                       # number of stalls in the iew stage due to dependency
system.cpu3.iew.iew_stalls_execbusy                 0                       # number of stalls in the iew stage due to exec stage being busy
system.cpu3.iew.iew_stalls_membarrier               0                       # number of stalls in the iew stage due to pending mem barrier
system.cpu3.iew.iew_stalls_revec                    0                       # number of stalls in the iew stage due to stalling for revec in pipeline
system.cpu3.iew.rob_head_stall_class_0::No_OpClass            0      0.00%      0.00% # Class of instruction blocking at head of ROB
system.cpu3.iew.rob_head_stall_class_0::IntAlu            0      0.00%      0.00% # Class of instruction blocking at head of ROB
system.cpu3.iew.rob_head_stall_class_0::IntMult            0      0.00%      0.00% # Class of instruction blocking at head of ROB
system.cpu3.iew.rob_head_stall_class_0::IntDiv            0      0.00%      0.00% # Class of instruction blocking at head of ROB
system.cpu3.iew.rob_head_stall_class_0::FloatAdd            0      0.00%      0.00% # Class of instruction blocking at head of ROB
system.cpu3.iew.rob_head_stall_class_0::FloatCmp            0      0.00%      0.00% # Class of instruction blocking at head of ROB
system.cpu3.iew.rob_head_stall_class_0::FloatCvt            0      0.00%      0.00% # Class of instruction blocking at head of ROB
system.cpu3.iew.rob_head_stall_class_0::FloatMult            0      0.00%      0.00% # Class of instruction blocking at head of ROB
system.cpu3.iew.rob_head_stall_class_0::FloatMultAcc            0      0.00%      0.00% # Class of instruction blocking at head of ROB
system.cpu3.iew.rob_head_stall_class_0::FloatDiv            0      0.00%      0.00% # Class of instruction blocking at head of ROB
system.cpu3.iew.rob_head_stall_class_0::FloatMisc            0      0.00%      0.00% # Class of instruction blocking at head of ROB
system.cpu3.iew.rob_head_stall_class_0::FloatSqrt            0      0.00%      0.00% # Class of instruction blocking at head of ROB
system.cpu3.iew.rob_head_stall_class_0::SimdAdd            0      0.00%      0.00% # Class of instruction blocking at head of ROB
system.cpu3.iew.rob_head_stall_class_0::SimdAddAcc            0      0.00%      0.00% # Class of instruction blocking at head of ROB
system.cpu3.iew.rob_head_stall_class_0::SimdAlu            0      0.00%      0.00% # Class of instruction blocking at head of ROB
system.cpu3.iew.rob_head_stall_class_0::SimdCmp            0      0.00%      0.00% # Class of instruction blocking at head of ROB
system.cpu3.iew.rob_head_stall_class_0::SimdCvt            0      0.00%      0.00% # Class of instruction blocking at head of ROB
system.cpu3.iew.rob_head_stall_class_0::SimdMisc            0      0.00%      0.00% # Class of instruction blocking at head of ROB
system.cpu3.iew.rob_head_stall_class_0::SimdMult            0      0.00%      0.00% # Class of instruction blocking at head of ROB
system.cpu3.iew.rob_head_stall_class_0::SimdMultAcc            0      0.00%      0.00% # Class of instruction blocking at head of ROB
system.cpu3.iew.rob_head_stall_class_0::SimdShift            0      0.00%      0.00% # Class of instruction blocking at head of ROB
system.cpu3.iew.rob_head_stall_class_0::SimdShiftAcc            0      0.00%      0.00% # Class of instruction blocking at head of ROB
system.cpu3.iew.rob_head_stall_class_0::SimdDiv            0      0.00%      0.00% # Class of instruction blocking at head of ROB
system.cpu3.iew.rob_head_stall_class_0::SimdSqrt            0      0.00%      0.00% # Class of instruction blocking at head of ROB
system.cpu3.iew.rob_head_stall_class_0::SimdFloatAdd            0      0.00%      0.00% # Class of instruction blocking at head of ROB
system.cpu3.iew.rob_head_stall_class_0::SimdFloatAlu            0      0.00%      0.00% # Class of instruction blocking at head of ROB
system.cpu3.iew.rob_head_stall_class_0::SimdFloatCmp            0      0.00%      0.00% # Class of instruction blocking at head of ROB
system.cpu3.iew.rob_head_stall_class_0::SimdFloatCvt            0      0.00%      0.00% # Class of instruction blocking at head of ROB
system.cpu3.iew.rob_head_stall_class_0::SimdFloatDiv            0      0.00%      0.00% # Class of instruction blocking at head of ROB
system.cpu3.iew.rob_head_stall_class_0::SimdFloatMisc            0      0.00%      0.00% # Class of instruction blocking at head of ROB
system.cpu3.iew.rob_head_stall_class_0::SimdFloatMult            0      0.00%      0.00% # Class of instruction blocking at head of ROB
system.cpu3.iew.rob_head_stall_class_0::SimdFloatMultAcc            0      0.00%      0.00% # Class of instruction blocking at head of ROB
system.cpu3.iew.rob_head_stall_class_0::SimdFloatSqrt            0      0.00%      0.00% # Class of instruction blocking at head of ROB
system.cpu3.iew.rob_head_stall_class_0::SimdReduceAdd            0      0.00%      0.00% # Class of instruction blocking at head of ROB
system.cpu3.iew.rob_head_stall_class_0::SimdReduceAlu            0      0.00%      0.00% # Class of instruction blocking at head of ROB
system.cpu3.iew.rob_head_stall_class_0::SimdReduceCmp            0      0.00%      0.00% # Class of instruction blocking at head of ROB
system.cpu3.iew.rob_head_stall_class_0::SimdFloatReduceAdd            0      0.00%      0.00% # Class of instruction blocking at head of ROB
[...]
system.ruby.IFETCH.L1Cache.hit_type_mach_latency_hist_seqr::max_bucket          319                      
system.ruby.IFETCH.L1Cache.hit_type_mach_latency_hist_seqr::samples           39                      
system.ruby.IFETCH.L1Cache.hit_type_mach_latency_hist_seqr::mean    44.358974                      
system.ruby.IFETCH.L1Cache.hit_type_mach_latency_hist_seqr::gmean     4.560672                      
system.ruby.IFETCH.L1Cache.hit_type_mach_latency_hist_seqr::stdev    67.858788                      
system.ruby.IFETCH.L1Cache.hit_type_mach_latency_hist_seqr |          27     69.23%     69.23% |           0      0.00%     69.23% |           0      0.00%     69.23% |           4     10.25%     79.48% |           2      5.12%     84.61% |           6     15.38%     99.99% |           0      0.00%     99.99% |           0      0.00%     99.99% |           0      0.00%     99.99% |           0      0.00%     99.99%
system.ruby.IFETCH.L1Cache.hit_type_mach_latency_hist_seqr::total           39                      
system.ruby.IFETCH.hit_latency_hist_seqr::bucket_size           32                      
system.ruby.IFETCH.hit_latency_hist_seqr::max_bucket          319                      
system.ruby.IFETCH.hit_latency_hist_seqr::samples           39                      
system.ruby.IFETCH.hit_latency_hist_seqr::mean    44.358974                      
system.ruby.IFETCH.hit_latency_hist_seqr::gmean     4.560672                      
system.ruby.IFETCH.hit_latency_hist_seqr::stdev    67.858788                      
system.ruby.IFETCH.hit_latency_hist_seqr |          27     69.23%     69.23% |           0      0.00%     69.23% |           0      0.00%     69.23% |           4     10.25%     79.48% |           2      5.12%     84.61% |           6     15.38%     99.99% |           0      0.00%     99.99% |           0      0.00%     99.99% |           0      0.00%     99.99% |           0      0.00%     99.99%
system.ruby.IFETCH.hit_latency_hist_seqr::total           39                      
system.ruby.IFETCH.latency_hist_seqr::bucket_size           32                      
system.ruby.IFETCH.latency_hist_seqr::max_bucket          319                      
system.ruby.IFETCH.latency_hist_seqr::samples           39                      
system.ruby.IFETCH.latency_hist_seqr::mean    44.358974                      
system.ruby.IFETCH.latency_hist_seqr::gmean     4.560672                      
system.ruby.IFETCH.latency_hist_seqr::stdev    67.858788                      
system.ruby.IFETCH.latency_hist_seqr     |          27     69.23%     69.23% |           0      0.00%     69.23% |           0      0.00%     69.23% |           4     10.25%     79.48% |           2      5.12%     84.61% |           6     15.38%     99.99% |           0      0.00%     99.99% |           0      0.00%     99.99% |           0      0.00%     99.99% |           0      0.00%     99.99%
system.ruby.IFETCH.latency_hist_seqr::total           39                      
system.ruby.L1Cache.hit_mach_latency_hist_seqr::bucket_size           32                      
system.ruby.L1Cache.hit_mach_latency_hist_seqr::max_bucket          319                      
system.ruby.L1Cache.hit_mach_latency_hist_seqr::samples           39                      
system.ruby.L1Cache.hit_mach_latency_hist_seqr::mean    44.358974                      
system.ruby.L1Cache.hit_mach_latency_hist_seqr::gmean     4.560672                      
system.ruby.L1Cache.hit_mach_latency_hist_seqr::stdev    67.858788                      
system.ruby.L1Cache.hit_mach_latency_hist_seqr |          27     69.23%     69.23% |           0      0.00%     69.23% |           0      0.00%     69.23% |           4     10.25%     79.48% |           2      5.12%     84.61% |           6     15.38%     99.99% |           0      0.00%     99.99% |           0      0.00%     99.99% |           0      0.00%     99.99% |           0      0.00%     99.99%
system.ruby.L1Cache.hit_mach_latency_hist_seqr::total           39                      
system.ruby.L1Cache_Controller.Data      |           6     50.00%     50.00% |           2     16.66%     66.66% |           2     16.66%     83.33% |           2     16.66%     99.99%
system.ruby.L1Cache_Controller.Data::total           12                      
system.ruby.L1Cache_Controller.Fetch     |          26     74.28%     74.28% |           3      8.57%     82.85% |           3      8.57%     91.42% |           3      8.57%     99.99%
system.ruby.L1Cache_Controller.Fetch::total           35                      
system.ruby.L1Cache_Controller.I.Data    |           6     50.00%     50.00% |           2     16.66%     66.66% |           2     16.66%     83.33% |           2     16.66%     99.99%
system.ruby.L1Cache_Controller.I.Data::total           12                      
system.ruby.L1Cache_Controller.I.Fetch   |           5     62.50%     62.50% |           1     12.50%     75.00% |           1     12.50%     87.50% |           1     12.50%    100.00%
system.ruby.L1Cache_Controller.I.Fetch::total            8                      
system.ruby.L1Cache_Controller.Repl      |           6    100.00%    100.00% |           0      0.00%    100.00% |           0      0.00%    100.00% |           0      0.00%    100.00%
system.ruby.L1Cache_Controller.Repl::total            6                      
system.ruby.L1Cache_Controller.V.Fetch   |          21     77.77%     77.77% |           2      7.40%     85.18% |           2      7.40%     92.59% |           2      7.40%     99.99%
system.ruby.L1Cache_Controller.V.Fetch::total           27                      
system.ruby.L1Cache_Controller.V.Repl    |           6    100.00%    100.00% |           0      0.00%    100.00% |           0      0.00%    100.00% |           0      0.00%    100.00%
system.ruby.L1Cache_Controller.V.Repl::total            6                      
system.ruby.L2Cache_Controller.I.READ    |           6    100.00%    100.00% |           0      0.00%    100.00%
system.ruby.L2Cache_Controller.I.READ::total            6                      
system.ruby.L2Cache_Controller.I.WRITE   |           3     50.00%     50.00% |           3     50.00%    100.00%
system.ruby.L2Cache_Controller.I.WRITE::total            6                      
system.ruby.L2Cache_Controller.IM.Memory_Data |           3     50.00%     50.00% |           3     50.00%    100.00%
system.ruby.L2Cache_Controller.IM.Memory_Data::total            6                      
system.ruby.L2Cache_Controller.IM.READ   |           9    100.00%    100.00% |           0      0.00%    100.00%
system.ruby.L2Cache_Controller.IM.READ::total            9                      
system.ruby.L2Cache_Controller.IV.Memory_Data |           6    100.00%    100.00% |           0      0.00%    100.00%
system.ruby.L2Cache_Controller.IV.Memory_Data::total            6                      
system.ruby.L2Cache_Controller.IV.READ   |           3    100.00%    100.00% |           0      0.00%    100.00%
system.ruby.L2Cache_Controller.IV.READ::total            3                      
system.ruby.L2Cache_Controller.M.READ    |          32     79.99%     79.99% |           8     19.99%     99.99%
system.ruby.L2Cache_Controller.M.READ::total           40                      
system.ruby.L2Cache_Controller.M.VREAD0  |           4     50.00%     50.00% |           4     50.00%    100.00%
system.ruby.L2Cache_Controller.M.VREAD0::total            8                      
system.ruby.L2Cache_Controller.M.VREAD1  |           8     50.00%     50.00% |           8     50.00%    100.00%
system.ruby.L2Cache_Controller.M.VREAD1::total           16                      
system.ruby.L2Cache_Controller.M.VREAD2  |           4     50.00%     50.00% |           4     50.00%    100.00%
system.ruby.L2Cache_Controller.M.VREAD2::total            8                      
system.ruby.L2Cache_Controller.M.WRITE   |          20     66.66%     66.66% |          10     33.33%     99.99%
system.ruby.L2Cache_Controller.M.WRITE::total           30                      
system.ruby.L2Cache_Controller.Memory_Data |           9     75.00%     75.00% |           3     25.00%    100.00%
system.ruby.L2Cache_Controller.Memory_Data::total           12                      
system.ruby.L2Cache_Controller.READ      |          56     87.50%     87.50% |           8     12.50%    100.00%
system.ruby.L2Cache_Controller.READ::total           64                      
system.ruby.L2Cache_Controller.Repl      |           1    100.00%    100.00% |           0      0.00%    100.00%
system.ruby.L2Cache_Controller.Repl::total            1                      
system.ruby.L2Cache_Controller.V.READ    |           6    100.00%    100.00% |           0      0.00%    100.00%
system.ruby.L2Cache_Controller.V.READ::total            6                      
system.ruby.L2Cache_Controller.V.Repl    |           1    100.00%    100.00% |           0      0.00%    100.00%
system.ruby.L2Cache_Controller.V.Repl::total            1                      
system.ruby.L2Cache_Controller.VREAD0    |           4     50.00%     50.00% |           4     50.00%    100.00%
system.ruby.L2Cache_Controller.VREAD0::total            8                      
system.ruby.L2Cache_Controller.VREAD1    |           8     50.00%     50.00% |           8     50.00%    100.00%
system.ruby.L2Cache_Controller.VREAD1::total           16                      
system.ruby.L2Cache_Controller.VREAD2    |           4     50.00%     50.00% |           4     50.00%    100.00%
system.ruby.L2Cache_Controller.VREAD2::total            8                      
system.ruby.L2Cache_Controller.WRITE     |          23     63.88%     63.88% |          13     36.11%     99.99%
system.ruby.L2Cache_Controller.WRITE::total           36                      
system.ruby.hit_latency_hist_seqr::bucket_size           32                      
system.ruby.hit_latency_hist_seqr::max_bucket          319                      
system.ruby.hit_latency_hist_seqr::samples           39                      
system.ruby.hit_latency_hist_seqr::mean     44.358974                      
system.ruby.hit_latency_hist_seqr::gmean     4.560672                      
system.ruby.hit_latency_hist_seqr::stdev    67.858788                      
system.ruby.hit_latency_hist_seqr        |          27     69.23%     69.23% |           0      0.00%     69.23% |           0      0.00%     69.23% |           4     10.25%     79.48% |           2      5.12%     84.61% |           6     15.38%     99.99% |           0      0.00%     99.99% |           0      0.00%     99.99% |           0      0.00%     99.99% |           0      0.00%     99.99%
system.ruby.hit_latency_hist_seqr::total           39                      
system.ruby.latency_hist_seqr::bucket_size           32                      
system.ruby.latency_hist_seqr::max_bucket          319                      
system.ruby.latency_hist_seqr::samples             39                      
system.ruby.latency_hist_seqr::mean         44.358974                      
system.ruby.latency_hist_seqr::gmean         4.560672                      
system.ruby.latency_hist_seqr::stdev        67.858788                      
system.ruby.latency_hist_seqr            |          27     69.23%     69.23% |           0      0.00%     69.23% |           0      0.00%     69.23% |           4     10.25%     79.48% |           2      5.12%     84.61% |           6     15.38%     99.99% |           0      0.00%     99.99% |           0      0.00%     99.99% |           0      0.00%     99.99% |           0      0.00%     99.99%
system.ruby.latency_hist_seqr::total               39                      
system.ruby.outstanding_req_hist_seqr::bucket_size            1                      
system.ruby.outstanding_req_hist_seqr::max_bucket            9                      
system.ruby.outstanding_req_hist_seqr::samples           35                      
system.ruby.outstanding_req_hist_seqr::mean     1.028571                      
system.ruby.outstanding_req_hist_seqr::gmean     1.020001                      
system.ruby.outstanding_req_hist_seqr::stdev     0.169030                      
system.ruby.outstanding_req_hist_seqr    |           0      0.00%      0.00% |          34     97.14%     97.14% |           1      2.85%     99.99% |           0      0.00%     99.99% |           0      0.00%     99.99% |           0      0.00%     99.99% |           0      0.00%     99.99% |           0      0.00%     99.99% |           0      0.00%     99.99% |           0      0.00%     99.99%
system.ruby.outstanding_req_hist_seqr::total           35                      
system.ruby.pwrStateResidencyTicks::UNDEFINED    292877000                       # Cumulative time (in ticks) in various power states
system.ruby.sys_port_proxy.pwrStateResidencyTicks::UNDEFINED    292877000                       # Cumulative time (in ticks) in various power states
system.scratchpads0.local_accesses                 12                       # Number of local accesses completed
system.scratchpads0.local_loads                     8                       # Number of loads completed by the local core
system.scratchpads0.local_stores                    4                       # Number of stores completed by the local core
system.scratchpads0.memReqBuffer.avg_buf_msgs     0.018892                       # Average number of messages in buffer
system.scratchpads0.memReqBuffer.avg_stall_time         1000                       # Average number of cycles messages are stalled in this MB
system.scratchpads0.memRespBuffer.avg_buf_msgs     0.018241                       # Average number of messages in buffer
system.scratchpads0.memRespBuffer.avg_stall_time 11115.960185                       # Average number of cycles messages are stalled in this MB
system.scratchpads0.pwrStateResidencyTicks::UNDEFINED    292877000                       # Cumulative time (in ticks) in various power states
system.scratchpads0.remote_accesses                 8                       # Number of remote accesses completed
system.scratchpads0.remote_loads                    0                       # Number of loads completed by a remote core
system.scratchpads0.remote_stores                   8                       # Number of stores completed by a remote core
system.scratchpads0.total_accesses                 20                       # Number of accesses completed
system.scratchpads1.local_accesses                 12                       # Number of local accesses completed
system.scratchpads1.local_loads                     8                       # Number of loads completed by the local core
system.scratchpads1.local_stores                    4                       # Number of stores completed by the local core
system.scratchpads1.memReqBuffer.avg_buf_msgs     0.013029                       # Average number of messages in buffer
system.scratchpads1.memReqBuffer.avg_stall_time         1000                       # Average number of cycles messages are stalled in this MB
system.scratchpads1.memRespBuffer.avg_buf_msgs     0.016938                       # Average number of messages in buffer
system.scratchpads1.memRespBuffer.avg_stall_time 11742.671177                       # Average number of cycles messages are stalled in this MB
system.scratchpads1.pwrStateResidencyTicks::UNDEFINED    292877000                       # Cumulative time (in ticks) in various power states
system.scratchpads1.remoteReqBuffer.avg_stall_time         8000                       # Average number of cycles messages are stalled in this MB
system.scratchpads1.remoteRespBuffer.avg_stall_time         1000                       # Average number of cycles messages are stalled in this MB
system.scratchpads1.remote_accesses                 8                       # Number of remote accesses completed
system.scratchpads1.remote_loads                    0                       # Number of loads completed by a remote core
system.scratchpads1.remote_stores                   8                       # Number of stores completed by a remote core
system.scratchpads1.total_accesses                 20                       # Number of accesses completed
system.scratchpads2.local_accesses                 12                       # Number of local accesses completed
system.scratchpads2.local_loads                     8                       # Number of loads completed by the local core
system.scratchpads2.local_stores                    4                       # Number of stores completed by the local core
system.scratchpads2.memReqBuffer.avg_buf_msgs     0.013029                       # Average number of messages in buffer
system.scratchpads2.memReqBuffer.avg_stall_time         1000                       # Average number of cycles messages are stalled in this MB
system.scratchpads2.memRespBuffer.avg_buf_msgs     0.016938                       # Average number of messages in buffer
system.scratchpads2.memRespBuffer.avg_stall_time  9452.767783                       # Average number of cycles messages are stalled in this MB
system.scratchpads2.pwrStateResidencyTicks::UNDEFINED    292877000                       # Cumulative time (in ticks) in various power states
system.scratchpads2.remoteReqBuffer.avg_stall_time         8000                       # Average number of cycles messages are stalled in this MB
system.scratchpads2.remoteRespBuffer.avg_stall_time         1000                       # Average number of cycles messages are stalled in this MB
system.scratchpads2.remote_accesses                 8                       # Number of remote accesses completed
system.scratchpads2.remote_loads                    0                       # Number of loads completed by a remote core
system.scratchpads2.remote_stores                   8                       # Number of stores completed by a remote core
system.scratchpads2.total_accesses                 20                       # Number of accesses completed
system.scratchpads3.local_accesses                 12                       # Number of local accesses completed
system.scratchpads3.local_loads                     8                       # Number of loads completed by the local core
system.scratchpads3.local_stores                    4                       # Number of stores completed by the local core
system.scratchpads3.memReqBuffer.avg_buf_msgs     0.013029                       # Average number of messages in buffer
system.scratchpads3.memReqBuffer.avg_stall_time         1000                       # Average number of cycles messages are stalled in this MB
system.scratchpads3.memRespBuffer.avg_buf_msgs     0.016938                       # Average number of messages in buffer
system.scratchpads3.memRespBuffer.avg_stall_time 10170.683927                       # Average number of cycles messages are stalled in this MB
system.scratchpads3.pwrStateResidencyTicks::UNDEFINED    292877000                       # Cumulative time (in ticks) in various power states
system.scratchpads3.remoteReqBuffer.avg_stall_time        10000                       # Average number of cycles messages are stalled in this MB
system.scratchpads3.remoteRespBuffer.avg_stall_time         1000                       # Average number of cycles messages are stalled in this MB
system.scratchpads3.remote_accesses                 8                       # Number of remote accesses completed
system.scratchpads3.remote_loads                    0                       # Number of loads completed by a remote core
system.scratchpads3.remote_stores                   8                       # Number of stores completed by a remote core
system.scratchpads3.total_accesses                 20                       # Number of accesses completed
system.voltage_domain.voltage                       1                       # Voltage in Volts

---------- End Simulation Statistics   ----------
