
---------- Begin Simulation Statistics ----------
final_tick                                  302279000                       # Number of ticks from beginning of simulation (restored from checkpoints and never reset)
host_inst_rate                                  32325                       # Simulator instruction rate (inst/s)
host_mem_usage                                 838808                       # Number of bytes of host memory used
host_op_rate                                    32154                       # Simulator op (including micro ops) rate (op/s)
host_seconds                                     0.03                       # Real time elapsed on the host
host_tick_rate                               59760678                       # Simulator tick rate (ticks/s)
sim_freq                                 1000000000000                       # Frequency of simulated ticks
sim_insts                                        1006                       # Number of instructions simulated
sim_ops                                          1006                       # Number of ops (including micro ops) simulated
sim_seconds                                  0.000001                       # Number of seconds simulated
sim_ticks                                     1871000                       # Number of ticks simulated
system.clk_domain.clock                          1000                       # Clock period in ticks
system.cpu0.branchPred.BTBCorrect                   0                       # Number of correct BTB predictions (this stat may not work properly.
system.cpu0.branchPred.BTBHitPct            38.636363                       # BTB Hit Percentage
system.cpu0.branchPred.BTBHits                     17                       # Number of BTB hits
system.cpu0.branchPred.BTBLookups                  44                       # Number of BTB lookups
system.cpu0.branchPred.RASInCorrect                 0                       # Number of incorrect RAS predictions.
system.cpu0.branchPred.condIncorrect               17                       # Number of conditional branches incorrect
system.cpu0.branchPred.condPredicted               40                       # Number of conditional branches predicted
system.cpu0.branchPred.indirectHits                 0                       # Number of indirect target hits.
system.cpu0.branchPred.indirectLookups              5                       # Number of indirect predictor lookups.
system.cpu0.branchPred.indirectMisses               5                       # Number of indirect misses.
system.cpu0.branchPred.lookups                     63                       # Number of BP lookups
system.cpu0.branchPred.usedRAS                      0                       # Number of times the RAS was used to get a target.
system.cpu0.branchPredindirectMispredicted            2                       # Number of mispredicted indirect branches.
system.cpu0.commit.commit_stalls                  220                       # number of stalls in the commit stage due to insufficient credits
system.cpu0.cpi                              7.605691                       # CPI: Cycles Per Instruction
system.cpu0.cpi_total                        7.605691                       # CPI: Total CPI of All Threads
system.cpu0.dtb.accesses                            0                       # DTB accesses
system.cpu0.dtb.hits                                0                       # DTB hits
system.cpu0.dtb.misses                              0                       # DTB misses
system.cpu0.dtb.read_accesses                       0                       # DTB read accesses
system.cpu0.dtb.read_hits                           0                       # DTB read hits
system.cpu0.dtb.read_misses                         0                       # DTB read misses
system.cpu0.dtb.write_accesses                      0                       # DTB write accesses
system.cpu0.dtb.write_hits                          0                       # DTB write hits
system.cpu0.dtb.write_misses                        0                       # DTB write misses
system.cpu0.iew.dep_stall_insts_0::No_OpClass            0      0.00%      0.00% # Class of instruction blocked in Issue due to dependency
system.cpu0.iew.dep_stall_insts_0::IntAlu           80     18.22%     18.22% # Class of instruction blocked in Issue due to dependency
system.cpu0.iew.dep_stall_insts_0::IntMult          208     47.38%     65.60% # Class of instruction blocked in Issue due to dependency
system.cpu0.iew.dep_stall_insts_0::IntDiv            0      0.00%     65.60% # Class of instruction blocked in Issue due to dependency
system.cpu0.iew.dep_stall_insts_0::FloatAdd            0      0.00%     65.60% # Class of instruction blocked in Issue due to dependency
system.cpu0.iew.dep_stall_insts_0::FloatCmp            0      0.00%     65.60% # Class of instruction blocked in Issue due to dependency
system.cpu0.iew.dep_stall_insts_0::FloatCvt            0      0.00%     65.60% # Class of instruction blocked in Issue due to dependency
system.cpu0.iew.dep_stall_insts_0::FloatMult            0      0.00%     65.60% # Class of instruction blocked in Issue due to dependency
system.cpu0.iew.dep_stall_insts_0::FloatMultAcc            0      0.00%     65.60% # Class of instruction blocked in Issue due to dependency
system.cpu0.iew.dep_stall_insts_0::FloatDiv            0      0.00%     65.60% # Class of instruction blocked in Issue due to dependency
system.cpu0.iew.dep_stall_insts_0::FloatMisc            0      0.00%     65.60% # Class of instruction blocked in Issue due to dependency
system.cpu0.iew.dep_stall_insts_0::FloatSqrt            0      0.00%     65.60% # Class of instruction blocked in Issue due to dependency
system.cpu0.iew.dep_stall_insts_0::SimdAdd            0      0.00%     65.60% # Class of instruction blocked in Issue due to dependency
system.cpu0.iew.dep_stall_insts_0::SimdAddAcc            0      0.00%     65.60% # Class of instruction blocked in Issue due to dependency
system.cpu0.iew.dep_stall_insts_0::SimdAlu            0      0.00%     65.60% # Class of instruction blocked in Issue due to dependency
system.cpu0.iew.dep_stall_insts_0::SimdCmp            0      0.00%     65.60% # Class of instruction blocked in Issue due to dependency
system.cpu0.iew.dep_stall_insts_0::SimdCvt            0      0.00%     65.60% # Class of instruction blocked in Issue due to dependency
system.cpu0.iew.dep_stall_insts_0::SimdMisc            0      0.00%     65.60% # Class of instruction blocked in Issue due to dependency
system.cpu0.iew.dep_stall_insts_0::SimdMult            0      0.00%     65.60% # Class of instruction blocked in Issue due to dependency
system.cpu0.iew.dep_stall_insts_0::SimdMultAcc            0      0.00%     65.60% # Class of instruction blocked in Issue due to dependency
system.cpu0.iew.dep_stall_insts_0::SimdShift            0      0.00%     65.60% # Class of instruction blocked in Issue due to dependency
system.cpu0.iew.dep_stall_insts_0::SimdShiftAcc            0      0.00%     65.60% # Class of instruction blocked in Issue due to dependency
system.cpu0.iew.dep_stall_insts_0::SimdDiv            0      0.00%     65.60% # Class of instruction blocked in Issue due to dependency
system.cpu0.iew.dep_stall_insts_0::SimdSqrt            0      0.00%     65.60% # Class of instruction blocked in Issue due to dependency
system.cpu0.iew.dep_stall_insts_0::SimdFloatAdd            0      0.00%     65.60% # Class of instruction blocked in Issue due to dependency
system.cpu0.iew.dep_stall_insts_0::SimdFloatAlu            0      0.00%     65.60% # Class of instruction blocked in Issue due to dependency
system.cpu0.iew.dep_stall_insts_0::SimdFloatCmp            0      0.00%     65.60% # Class of instruction blocked in Issue due to dependency
system.cpu0.iew.dep_stall_insts_0::SimdFloatCvt            0      0.00%     65.60% # Class of instruction blocked in Issue due to dependency
system.cpu0.iew.dep_stall_insts_0::SimdFloatDiv            0      0.00%     65.60% # Class of instruction blocked in Issue due to dependency
system.cpu0.iew.dep_stall_insts_0::SimdFloatMisc            0      0.00%     65.60% # Class of instruction blocked in Issue due to dependency
system.cpu0.iew.dep_stall_insts_0::SimdFloatMult            0      0.00%     65.60% # Class of instruction blocked in Issue due to dependency
system.cpu0.iew.dep_stall_insts_0::SimdFloatMultAcc            0      0.00%     65.60% # Class of instruction blocked in Issue due to dependency
system.cpu0.iew.dep_stall_insts_0::SimdFloatSqrt            0      0.00%     65.60% # Class of instruction blocked in Issue due to dependency
system.cpu0.iew.dep_stall_insts_0::SimdReduceAdd            0      0.00%     65.60% # Class of instruction blocked in Issue due to dependency
system.cpu0.iew.dep_stall_insts_0::SimdReduceAlu            0      0.00%     65.60% # Class of instruction blocked in Issue due to dependency
system.cpu0.iew.dep_stall_insts_0::SimdReduceCmp            0      0.00%     65.60% # Class of instruction blocked in Issue due to dependency
system.cpu0.iew.dep_stall_insts_0::SimdFloatReduceAdd            0      0.00%     65.60% # Class of instruction blocked in Issue due to dependency
system.cpu0.iew.dep_stall_insts_0::SimdFloatReduceCmp            0      0.00%     65.60% # Class of instruction blocked in Issue due to dependency
system.cpu0.iew.dep_stall_insts_0::SimdAes            0      0.00%     65.60% # Class of instruction blocked in Issue due to dependency
system.cpu0.iew.dep_stall_insts_0::SimdAesMix            0      0.00%     65.60% # Class of instruction blocked in Issue due to dependency
system.cpu0.iew.dep_stall_insts_0::SimdSha1Hash            0      0.00%     65.60% # Class of instruction blocked in Issue due to dependency
system.cpu0.iew.dep_stall_insts_0::SimdSha1Hash2            0      0.00%     65.60% # Class of instruction blocked in Issue due to dependency
system.cpu0.iew.dep_stall_insts_0::SimdSha256Hash            0      0.00%     65.60% # Class of instruction blocked in Issue due to dependency
system.cpu0.iew.dep_stall_insts_0::SimdSha256Hash2            0      0.00%     65.60% # Class of instruction blocked in Issue due to dependency
system.cpu0.iew.dep_stall_insts_0::SimdShaSigma2            0      0.00%     65.60% # Class of instruction blocked in Issue due to dependency
system.cpu0.iew.dep_stall_insts_0::SimdShaSigma3            0      0.00%     65.60% # Class of instruction blocked in Issue due to dependency
system.cpu0.iew.dep_stall_insts_0::SimdPredAlu            0      0.00%     65.60% # Class of instruction blocked in Issue due to dependency
system.cpu0.iew.dep_stall_insts_0::MemRead            0      0.00%     65.60% # Class of instruction blocked in Issue due to dependency
system.cpu0.iew.dep_stall_insts_0::MemWrite          151     34.39%     99.99% # Class of instruction blocked in Issue due to dependency
system.cpu0.iew.dep_stall_insts_0::FloatMemRead            0      0.00%     99.99% # Class of instruction blocked in Issue due to dependency
system.cpu0.iew.dep_stall_insts_0::FloatMemWrite            0      0.00%     99.99% # Class of instruction blocked in Issue due to dependency
system.cpu0.iew.dep_stall_insts_0::IprAccess            0      0.00%     99.99% # Class of instruction blocked in Issue due to dependency
system.cpu0.iew.dep_stall_insts_0::InstPrefetch            0      0.00%     99.99% # Class of instruction blocked in Issue due to dependency
system.cpu0.iew.dep_stall_insts_0::total          439                       # Class of instruction blocked in Issue due to dependency
system.cpu0.iew.iew_stalls_control                 70                       # number of stalls in the iew stage due to stalling for control flow insts in pipeline
system.cpu0.iew.iew_stalls_dep                    439                       # number of stalls in the iew stage due to dependency
system.cpu0.iew.iew_stalls_execbusy                55                       # number of stalls in the iew stage due to exec stage being busy
system.cpu0.iew.iew_stalls_membarrier               0                       # number of stalls in the iew stage due to pending mem barrier
system.cpu0.iew.iew_stalls_revec                    1                       # number of stalls in the iew stage due to stalling for revec in pipeline
system.cpu0.iew.rob_head_stall_class_0::No_OpClass            0      0.00%      0.00% # Class of instruction blocking at head of ROB
system.cpu0.iew.rob_head_stall_class_0::IntAlu            0      0.00%      0.00% # Class of instruction blocking at head of ROB
system.cpu0.iew.rob_head_stall_class_0::IntMult            0      0.00%      0.00% # Class of instruction blocking at head of ROB
system.cpu0.iew.rob_head_stall_class_0::IntDiv            0      0.00%      0.00% # Class of instruction blocking at head of ROB
system.cpu0.iew.rob_head_stall_class_0::FloatAdd            0      0.00%      0.00% # Class of instruction blocking at head of ROB
system.cpu0.iew.rob_head_stall_class_0::FloatCmp            0      0.00%      0.00% # Class of instruction blocking at head of ROB
system.cpu0.iew.rob_head_stall_class_0::FloatCvt            0      0.00%      0.00% # Class of instruction blocking at head of ROB
system.cpu0.iew.rob_head_stall_class_0::FloatMult            0      0.00%      0.00% # Class of instruction blocking at head of ROB
system.cpu0.iew.rob_head_stall_class_0::FloatMultAcc            0      0.00%      0.00% # Class of instruction blocking at head of ROB
system.cpu0.iew.rob_head_stall_class_0::FloatDiv            0      0.00%      0.00% # Class of instruction blocking at head of ROB
system.cpu0.iew.rob_head_stall_class_0::FloatMisc            0      0.00%      0.00% # Class of instruction blocking at head of ROB
system.cpu0.iew.rob_head_stall_class_0::FloatSqrt            0      0.00%      0.00% # Class of instruction blocking at head of ROB
system.cpu0.iew.rob_head_stall_class_0::SimdAdd            0      0.00%      0.00% # Class of instruction blocking at head of ROB
system.cpu0.iew.rob_head_stall_class_0::SimdAddAcc            0      0.00%      0.00% # Class of instruction blocking at head of ROB
system.cpu0.iew.rob_head_stall_class_0::SimdAlu            0      0.00%      0.00% # Class of instruction blocking at head of ROB
system.cpu0.iew.rob_head_stall_class_0::SimdCmp            0      0.00%      0.00% # Class of instruction blocking at head of ROB
system.cpu0.iew.rob_head_stall_class_0::SimdCvt            0      0.00%      0.00% # Class of instruction blocking at head of ROB
system.cpu0.iew.rob_head_stall_class_0::SimdMisc            0      0.00%      0.00% # Class of instruction blocking at head of ROB
system.cpu0.iew.rob_head_stall_class_0::SimdMult            0      0.00%      0.00% # Class of instruction blocking at head of ROB
system.cpu0.iew.rob_head_stall_class_0::SimdMultAcc            0      0.00%      0.00% # Class of instruction blocking at head of ROB
system.cpu0.iew.rob_head_stall_class_0::SimdShift            0      0.00%      0.00% # Class of instruction blocking at head of ROB
system.cpu0.iew.rob_head_stall_class_0::SimdShiftAcc            0      0.00%      0.00% # Class of instruction blocking at head of ROB
system.cpu0.iew.rob_head_stall_class_0::SimdDiv            0      0.00%      0.00% # Class of instruction blocking at head of ROB
system.cpu0.iew.rob_head_stall_class_0::SimdSqrt            0      0.00%      0.00% # Class of instruction blocking at head of ROB
system.cpu0.iew.rob_head_stall_class_0::SimdFloatAdd            0      0.00%      0.00% # Class of instruction blocking at head of ROB
system.cpu0.iew.rob_head_stall_class_0::SimdFloatAlu            0      0.00%      0.00% # Class of instruction blocking at head of ROB
system.cpu0.iew.rob_head_stall_class_0::SimdFloatCmp            0      0.00%      0.00% # Class of instruction blocking at head of ROB
system.cpu0.iew.rob_head_stall_class_0::SimdFloatCvt            0      0.00%      0.00% # Class of instruction blocking at head of ROB
system.cpu0.iew.rob_head_stall_class_0::SimdFloatDiv            0      0.00%      0.00% # Class of instruction blocking at head of ROB
system.cpu0.iew.rob_head_stall_class_0::SimdFloatMisc            0      0.00%      0.00% # Class of instruction blocking at head of ROB
system.cpu0.iew.rob_head_stall_class_0::SimdFloatMult            0      0.00%      0.00% # Class of instruction blocking at head of ROB
system.cpu0.iew.rob_head_stall_class_0::SimdFloatMultAcc            0      0.00%      0.00% # Class of instruction blocking at head of ROB
system.cpu0.iew.rob_head_stall_class_0::SimdFloatSqrt            0      0.00%      0.00% # Class of instruction blocking at head of ROB
system.cpu0.iew.rob_head_stall_class_0::SimdReduceAdd            0      0.00%      0.00% # Class of instruction blocking at head of ROB
system.cpu0.iew.rob_head_stall_class_0::SimdReduceAlu            0      0.00%      0.00% # Class of instruction blocking at head of ROB
system.cpu0.iew.rob_head_stall_class_0::SimdReduceCmp            0      0.00%      0.00% # Class of instruction blocking at head of ROB
system.cpu0.iew.rob_head_stall_class_0::SimdFloatReduceAdd            0      0.00%      0.00% # Class of instruction blocking at head of ROB
system.cpu0.iew.rob_head_stall_class_0::SimdFloatReduceCmp            0      0.00%      0.00% # Class of instruction blocking at head of ROB
system.cpu0.iew.rob_head_stall_class_0::SimdAes            0      0.00%      0.00% # Class of instruction blocking at head of ROB
system.cpu0.iew.rob_head_stall_class_0::SimdAesMix            0      0.00%      0.00% # Class of instruction blocking at head of ROB
system.cpu0.iew.rob_head_stall_class_0::SimdSha1Hash            0      0.00%      0.00% # Class of instruction blocking at head of ROB
system.cpu0.iew.rob_head_stall_class_0::SimdSha1Hash2            0      0.00%      0.00% # Class of instruction blocking at head of ROB
system.cpu0.iew.rob_head_stall_class_0::SimdSha256Hash            0      0.00%      0.00% # Class of instruction blocking at head of ROB
system.cpu0.iew.rob_head_stall_class_0::SimdSha256Hash2            0      0.00%      0.00% # Class of instruction blocking at head of ROB
system.cpu0.iew.rob_head_stall_class_0::SimdShaSigma2            0      0.00%      0.00% # Class of instruction blocking at head of ROB
system.cpu0.iew.rob_head_stall_class_0::SimdShaSigma3            0      0.00%      0.00% # Class of instruction blocking at head of ROB
system.cpu0.iew.rob_head_stall_class_0::SimdPredAlu            0      0.00%      0.00% # Class of instruction blocking at head of ROB
system.cpu0.iew.rob_head_stall_class_0::MemRead            0      0.00%      0.00% # Class of instruction blocking at head of ROB
system.cpu0.iew.rob_head_stall_class_0::MemWrite          310    100.00%    100.00% # Class of instruction blocking at head of ROB
system.cpu0.iew.rob_head_stall_class_0::FloatMemRead            0      0.00%    100.00% # Class of instruction blocking at head of ROB
system.cpu0.iew.rob_head_stall_class_0::FloatMemWrite            0      0.00%    100.00% # Class of instruction blocking at head of ROB
system.cpu0.iew.rob_head_stall_class_0::IprAccess            0      0.00%    100.00% # Class of instruction blocking at head of ROB
system.cpu0.iew.rob_head_stall_class_0::InstPrefetch            0      0.00%    100.00% # Class of instruction blocking at head of ROB
system.cpu0.iew.rob_head_stall_class_0::total          310                       # Class of instruction blocking at head of ROB
system.cpu0.iew.robfull                           310                       # number of stalls in the iew stage due to rob being full
system.cpu0.ipc                              0.131480                       # IPC: Instructions Per Cycle
system.cpu0.ipc_total                        0.131480                       # IPC: Total IPC of All Threads
system.cpu0.itb.accesses                            0                       # DTB accesses
system.cpu0.itb.hits                                0                       # DTB hits
system.cpu0.itb.misses                              0                       # DTB misses
system.cpu0.itb.read_accesses                       0                       # DTB read accesses
system.cpu0.itb.read_hits                           0                       # DTB read hits
system.cpu0.itb.read_misses                         0                       # DTB read misses
system.cpu0.itb.write_accesses                      0                       # DTB write accesses
system.cpu0.itb.write_hits                          0                       # DTB write hits
system.cpu0.itb.write_misses                        0                       # DTB write misses
system.cpu0.late_vector.backpressure_stalls          250                       # number of stalls due to backpressure
system.cpu0.late_vector.mesh_input_stalls            0                       # number of stalls due to no input from mesh
system.cpu0.late_vector.pipe_input_stalls         1276                       # number of stalls due to no input from fetch
system.cpu0.late_vector.revec_stalls                0                       # number of stalls due to revec
system.cpu0.numCycles                            1871                       # number of cpu cycles simulated
system.cpu0.numWorkItemsCompleted                   0                       # number of work items this cpu completed
system.cpu0.numWorkItemsStarted                     0                       # number of work items this cpu started
system.cpu0.num_committed_insts                   246                       # Number of Instructions Simulated
system.cpu0.pwrStateResidencyTicks::ON      302279000                       # Cumulative time (in ticks) in various power states
system.cpu0.vector.backpressure_stalls              0                       # number of stalls due to backpressure
system.cpu0.vector.mesh_input_stalls                0                       # number of stalls due to no input from mesh
system.cpu0.vector.pipe_input_stalls             1464                       # number of stalls due to no input from fetch
system.cpu0.vector.revec_stalls                     0                       # number of stalls due to revec
system.cpu0.workload.numSyscalls                    0                       # Number of system calls
system.cpu1.branchPred.BTBCorrect                   0                       # Number of correct BTB predictions (this stat may not work properly.
system.cpu1.branchPred.BTBHitPct             0.000000                       # BTB Hit Percentage
system.cpu1.branchPred.BTBHits                      0                       # Number of BTB hits
system.cpu1.branchPred.BTBLookups                  53                       # Number of BTB lookups
system.cpu1.branchPred.RASInCorrect                 0                       # Number of incorrect RAS predictions.
system.cpu1.branchPred.condIncorrect                3                       # Number of conditional branches incorrect
system.cpu1.branchPred.condPredicted               35                       # Number of conditional branches predicted
system.cpu1.branchPred.indirectHits                 0                       # Number of indirect target hits.
system.cpu1.branchPred.indirectLookups              4                       # Number of indirect predictor lookups.
system.cpu1.branchPred.indirectMisses               4                       # Number of indirect misses.
system.cpu1.branchPred.lookups                     53                       # Number of BP lookups
system.cpu1.branchPred.usedRAS                      0                       # Number of times the RAS was used to get a target.
system.cpu1.branchPredindirectMispredicted            1                       # Number of mispredicted indirect branches.
system.cpu1.commit.commit_stalls                    0                       # number of stalls in the commit stage due to insufficient credits
system.cpu1.cpi                              7.514056                       # CPI: Cycles Per Instruction
system.cpu1.cpi_total                        7.514056                       # CPI: Total CPI of All Threads
system.cpu1.dtb.accesses                            0                       # DTB accesses
system.cpu1.dtb.hits                                0                       # DTB hits
system.cpu1.dtb.misses                              0                       # DTB misses
system.cpu1.dtb.read_accesses                       0                       # DTB read accesses
system.cpu1.dtb.read_hits                           0                       # DTB read hits
system.cpu1.dtb.read_misses                         0                       # DTB read misses
system.cpu1.dtb.write_accesses                      0                       # DTB write accesses
system.cpu1.dtb.write_hits                          0                       # DTB write hits
system.cpu1.dtb.write_misses                        0                       # DTB write misses
system.cpu1.iew.dep_stall_insts_0::No_OpClass            0      0.00%      0.00% # Class of instruction blocked in Issue due to dependency
system.cpu1.iew.dep_stall_insts_0::IntAlu          171     86.80%     86.80% # Class of instruction blocked in Issue due to dependency
system.cpu1.iew.dep_stall_insts_0::IntMult           12      6.09%     92.89% # Class of instruction blocked in Issue due to dependency
system.cpu1.iew.dep_stall_insts_0::IntDiv            0      0.00%     92.89% # Class of instruction blocked in Issue due to dependency
system.cpu1.iew.dep_stall_insts_0::FloatAdd            0      0.00%     92.89% # Class of instruction blocked in Issue due to dependency
system.cpu1.iew.dep_stall_insts_0::FloatCmp            0      0.00%     92.89% # Class of instruction blocked in Issue due to dependency
system.cpu1.iew.dep_stall_insts_0::FloatCvt            0      0.00%     92.89% # Class of instruction blocked in Issue due to dependency
system.cpu1.iew.dep_stall_insts_0::FloatMult            0      0.00%     92.89% # Class of instruction blocked in Issue due to dependency
system.cpu1.iew.dep_stall_insts_0::FloatMultAcc            0      0.00%     92.89% # Class of instruction blocked in Issue due to dependency
system.cpu1.iew.dep_stall_insts_0::FloatDiv            0      0.00%     92.89% # Class of instruction blocked in Issue due to dependency
system.cpu1.iew.dep_stall_insts_0::FloatMisc            0      0.00%     92.89% # Class of instruction blocked in Issue due to dependency
system.cpu1.iew.dep_stall_insts_0::FloatSqrt            0      0.00%     92.89% # Class of instruction blocked in Issue due to dependency
system.cpu1.iew.dep_stall_insts_0::SimdAdd            0      0.00%     92.89% # Class of instruction blocked in Issue due to dependency
system.cpu1.iew.dep_stall_insts_0::SimdAddAcc            0      0.00%     92.89% # Class of instruction blocked in Issue due to dependency
system.cpu1.iew.dep_stall_insts_0::SimdAlu            0      0.00%     92.89% # Class of instruction blocked in Issue due to dependency
system.cpu1.iew.dep_stall_insts_0::SimdCmp            0      0.00%     92.89% # Class of instruction blocked in Issue due to dependency
system.cpu1.iew.dep_stall_insts_0::SimdCvt            0      0.00%     92.89% # Class of instruction blocked in Issue due to dependency
system.cpu1.iew.dep_stall_insts_0::SimdMisc            0      0.00%     92.89% # Class of instruction blocked in Issue due to dependency
system.cpu1.iew.dep_stall_insts_0::SimdMult            0      0.00%     92.89% # Class of instruction blocked in Issue due to dependency
system.cpu1.iew.dep_stall_insts_0::SimdMultAcc            0      0.00%     92.89% # Class of instruction blocked in Issue due to dependency
system.cpu1.iew.dep_stall_insts_0::SimdShift            0      0.00%     92.89% # Class of instruction blocked in Issue due to dependency
system.cpu1.iew.dep_stall_insts_0::SimdShiftAcc            0      0.00%     92.89% # Class of instruction blocked in Issue due to dependency
system.cpu1.iew.dep_stall_insts_0::SimdDiv            0      0.00%     92.89% # Class of instruction blocked in Issue due to dependency
system.cpu1.iew.dep_stall_insts_0::SimdSqrt            0      0.00%     92.89% # Class of instruction blocked in Issue due to dependency
system.cpu1.iew.dep_stall_insts_0::SimdFloatAdd            0      0.00%     92.89% # Class of instruction blocked in Issue due to dependency
system.cpu1.iew.dep_stall_insts_0::SimdFloatAlu            0      0.00%     92.89% # Class of instruction blocked in Issue due to dependency
system.cpu1.iew.dep_stall_insts_0::SimdFloatCmp            0      0.00%     92.89% # Class of instruction blocked in Issue due to dependency
system.cpu1.iew.dep_stall_insts_0::SimdFloatCvt            0      0.00%     92.89% # Class of instruction blocked in Issue due to dependency
system.cpu1.iew.dep_stall_insts_0::SimdFloatDiv            0      0.00%     92.89% # Class of instruction blocked in Issue due to dependency
system.cpu1.iew.dep_stall_insts_0::SimdFloatMisc            0      0.00%     92.89% # Class of instruction blocked in Issue due to dependency
system.cpu1.iew.dep_stall_insts_0::SimdFloatMult            0      0.00%     92.89% # Class of instruction blocked in Issue due to dependency
system.cpu1.iew.dep_stall_insts_0::SimdFloatMultAcc            0      0.00%     92.89% # Class of instruction blocked in Issue due to dependency
system.cpu1.iew.dep_stall_insts_0::SimdFloatSqrt            0      0.00%     92.89% # Class of instruction blocked in Issue due to dependency
system.cpu1.iew.dep_stall_insts_0::SimdReduceAdd            0      0.00%     92.89% # Class of instruction blocked in Issue due to dependency
system.cpu1.iew.dep_stall_insts_0::SimdReduceAlu            0      0.00%     92.89% # Class of instruction blocked in Issue due to dependency
system.cpu1.iew.dep_stall_insts_0::SimdReduceCmp            0      0.00%     92.89% # Class of instruction blocked in Issue due to dependency
system.cpu1.iew.dep_stall_insts_0::SimdFloatReduceAdd            0      0.00%     92.89% # Class of instruction blocked in Issue due to dependency
system.cpu1.iew.dep_stall_insts_0::SimdFloatReduceCmp            0      0.00%     92.89% # Class of instruction blocked in Issue due to dependency
system.cpu1.iew.dep_stall_insts_0::SimdAes            0      0.00%     92.89% # Class of instruction blocked in Issue due to dependency
system.cpu1.iew.dep_stall_insts_0::SimdAesMix            0      0.00%     92.89% # Class of instruction blocked in Issue due to dependency
system.cpu1.iew.dep_stall_insts_0::SimdSha1Hash            0      0.00%     92.89% # Class of instruction blocked in Issue due to dependency
system.cpu1.iew.dep_stall_insts_0::SimdSha1Hash2            0      0.00%     92.89% # Class of instruction blocked in Issue due to dependency
system.cpu1.iew.dep_stall_insts_0::SimdSha256Hash            0      0.00%     92.89% # Class of instruction blocked in Issue due to dependency
system.cpu1.iew.dep_stall_insts_0::SimdSha256Hash2            0      0.00%     92.89% # Class of instruction blocked in Issue due to dependency
system.cpu1.iew.dep_stall_insts_0::SimdShaSigma2            0      0.00%     92.89% # Class of instruction blocked in Issue due to dependency
system.cpu1.iew.dep_stall_insts_0::SimdShaSigma3            0      0.00%     92.89% # Class of instruction blocked in Issue due to dependency
system.cpu1.iew.dep_stall_insts_0::SimdPredAlu            0      0.00%     92.89% # Class of instruction blocked in Issue due to dependency
system.cpu1.iew.dep_stall_insts_0::MemRead            0      0.00%     92.89% # Class of instruction blocked in Issue due to dependency
system.cpu1.iew.dep_stall_insts_0::MemWrite           14      7.10%     99.99% # Class of instruction blocked in Issue due to dependency
system.cpu1.iew.dep_stall_insts_0::FloatMemRead            0      0.00%     99.99% # Class of instruction blocked in Issue due to dependency
system.cpu1.iew.dep_stall_insts_0::FloatMemWrite            0      0.00%     99.99% # Class of instruction blocked in Issue due to dependency
system.cpu1.iew.dep_stall_insts_0::IprAccess            0      0.00%     99.99% # Class of instruction blocked in Issue due to dependency
system.cpu1.iew.dep_stall_insts_0::InstPrefetch            0      0.00%     99.99% # Class of instruction blocked in Issue due to dependency
system.cpu1.iew.dep_stall_insts_0::total          197                       # Class of instruction blocked in Issue due to dependency
system.cpu1.iew.iew_stalls_control                 66                       # number of stalls in the iew stage due to stalling for control flow insts in pipeline
system.cpu1.iew.iew_stalls_dep                    197                       # number of stalls in the iew stage due to dependency
system.cpu1.iew.iew_stalls_execbusy                 1                       # number of stalls in the iew stage due to exec stage being busy
system.cpu1.iew.iew_stalls_membarrier               0                       # number of stalls in the iew stage due to pending mem barrier
system.cpu1.iew.iew_stalls_revec                    1                       # number of stalls in the iew stage due to stalling for revec in pipeline
system.cpu1.iew.rob_head_stall_class_0::No_OpClass            0      0.00%      0.00% # Class of instruction blocking at head of ROB
system.cpu1.iew.rob_head_stall_class_0::IntAlu            0      0.00%      0.00% # Class of instruction blocking at head of ROB
system.cpu1.iew.rob_head_stall_class_0::IntMult            0      0.00%      0.00% # Class of instruction blocking at head of ROB
system.cpu1.iew.rob_head_stall_class_0::IntDiv            0      0.00%      0.00% # Class of instruction blocking at head of ROB
system.cpu1.iew.rob_head_stall_class_0::FloatAdd            0      0.00%      0.00% # Class of instruction blocking at head of ROB
system.cpu1.iew.rob_head_stall_class_0::FloatCmp            0      0.00%      0.00% # Class of instruction blocking at head of ROB
system.cpu1.iew.rob_head_stall_class_0::FloatCvt            0      0.00%      0.00% # Class of instruction blocking at head of ROB
system.cpu1.iew.rob_head_stall_class_0::FloatMult            0      0.00%      0.00% # Class of instruction blocking at head of ROB
system.cpu1.iew.rob_head_stall_class_0::FloatMultAcc            0      0.00%      0.00% # Class of instruction blocking at head of ROB
system.cpu1.iew.rob_head_stall_class_0::FloatDiv            0      0.00%      0.00% # Class of instruction blocking at head of ROB
system.cpu1.iew.rob_head_stall_class_0::FloatMisc            0      0.00%      0.00% # Class of instruction blocking at head of ROB
system.cpu1.iew.rob_head_stall_class_0::FloatSqrt            0      0.00%      0.00% # Class of instruction blocking at head of ROB
system.cpu1.iew.rob_head_stall_class_0::SimdAdd            0      0.00%      0.00% # Class of instruction blocking at head of ROB
system.cpu1.iew.rob_head_stall_class_0::SimdAddAcc            0      0.00%      0.00% # Class of instruction blocking at head of ROB
system.cpu1.iew.rob_head_stall_class_0::SimdAlu            0      0.00%      0.00% # Class of instruction blocking at head of ROB
system.cpu1.iew.rob_head_stall_class_0::SimdCmp            0      0.00%      0.00% # Class of instruction blocking at head of ROB
system.cpu1.iew.rob_head_stall_class_0::SimdCvt            0      0.00%      0.00% # Class of instruction blocking at head of ROB
system.cpu1.iew.rob_head_stall_class_0::SimdMisc            0      0.00%      0.00% # Class of instruction blocking at head of ROB
system.cpu1.iew.rob_head_stall_class_0::SimdMult            0      0.00%      0.00% # Class of instruction blocking at head of ROB
system.cpu1.iew.rob_head_stall_class_0::SimdMultAcc            0      0.00%      0.00% # Class of instruction blocking at head of ROB
system.cpu1.iew.rob_head_stall_class_0::SimdShift            0      0.00%      0.00% # Class of instruction blocking at head of ROB
system.cpu1.iew.rob_head_stall_class_0::SimdShiftAcc            0      0.00%      0.00% # Class of instruction blocking at head of ROB
system.cpu1.iew.rob_head_stall_class_0::SimdDiv            0      0.00%      0.00% # Class of instruction blocking at head of ROB
system.cpu1.iew.rob_head_stall_class_0::SimdSqrt            0      0.00%      0.00% # Class of instruction blocking at head of ROB
system.cpu1.iew.rob_head_stall_class_0::SimdFloatAdd            0      0.00%      0.00% # Class of instruction blocking at head of ROB
system.cpu1.iew.rob_head_stall_class_0::SimdFloatAlu            0      0.00%      0.00% # Class of instruction blocking at head of ROB
system.cpu1.iew.rob_head_stall_class_0::SimdFloatCmp            0      0.00%      0.00% # Class of instruction blocking at head of ROB
system.cpu1.iew.rob_head_stall_class_0::SimdFloatCvt            0      0.00%      0.00% # Class of instruction blocking at head of ROB
system.cpu1.iew.rob_head_stall_class_0::SimdFloatDiv            0      0.00%      0.00% # Class of instruction blocking at head of ROB
system.cpu1.iew.rob_head_stall_class_0::SimdFloatMisc            0      0.00%      0.00% # Class of instruction blocking at head of ROB
system.cpu1.iew.rob_head_stall_class_0::SimdFloatMult            0      0.00%      0.00% # Class of instruction blocking at head of ROB
system.cpu1.iew.rob_head_stall_class_0::SimdFloatMultAcc            0      0.00%      0.00% # Class of instruction blocking at head of ROB
system.cpu1.iew.rob_head_stall_class_0::SimdFloatSqrt            0      0.00%      0.00% # Class of instruction blocking at head of ROB
system.cpu1.iew.rob_head_stall_class_0::SimdReduceAdd            0      0.00%      0.00% # Class of instruction blocking at head of ROB
system.cpu1.iew.rob_head_stall_class_0::SimdReduceAlu            0      0.00%      0.00% # Class of instruction blocking at head of ROB
system.cpu1.iew.rob_head_stall_class_0::SimdReduceCmp            0      0.00%      0.00% # Class of instruction blocking at head of ROB
system.cpu1.iew.rob_head_stall_class_0::SimdFloatReduceAdd            0      0.00%      0.00% # Class of instruction blocking at head of ROB
system.cpu1.iew.rob_head_stall_class_0::SimdFloatReduceCmp            0      0.00%      0.00% # Class of instruction blocking at head of ROB
system.cpu1.iew.rob_head_stall_class_0::SimdAes            0      0.00%      0.00% # Class of instruction blocking at head of ROB
system.cpu1.iew.rob_head_stall_class_0::SimdAesMix            0      0.00%      0.00% # Class of instruction blocking at head of ROB
system.cpu1.iew.rob_head_stall_class_0::SimdSha1Hash            0      0.00%      0.00% # Class of instruction blocking at head of ROB
system.cpu1.iew.rob_head_stall_class_0::SimdSha1Hash2            0      0.00%      0.00% # Class of instruction blocking at head of ROB
system.cpu1.iew.rob_head_stall_class_0::SimdSha256Hash            0      0.00%      0.00% # Class of instruction blocking at head of ROB
system.cpu1.iew.rob_head_stall_class_0::SimdSha256Hash2            0      0.00%      0.00% # Class of instruction blocking at head of ROB
system.cpu1.iew.rob_head_stall_class_0::SimdShaSigma2            0      0.00%      0.00% # Class of instruction blocking at head of ROB
system.cpu1.iew.rob_head_stall_class_0::SimdShaSigma3            0      0.00%      0.00% # Class of instruction blocking at head of ROB
system.cpu1.iew.rob_head_stall_class_0::SimdPredAlu            0      0.00%      0.00% # Class of instruction blocking at head of ROB
system.cpu1.iew.rob_head_stall_class_0::MemRead            0      0.00%      0.00% # Class of instruction blocking at head of ROB
system.cpu1.iew.rob_head_stall_class_0::MemWrite          419    100.00%    100.00% # Class of instruction blocking at head of ROB
system.cpu1.iew.rob_head_stall_class_0::FloatMemRead            0      0.00%    100.00% # Class of instruction blocking at head of ROB
system.cpu1.iew.rob_head_stall_class_0::FloatMemWrite            0      0.00%    100.00% # Class of instruction blocking at head of ROB
system.cpu1.iew.rob_head_stall_class_0::IprAccess            0      0.00%    100.00% # Class of instruction blocking at head of ROB
system.cpu1.iew.rob_head_stall_class_0::InstPrefetch            0      0.00%    100.00% # Class of instruction blocking at head of ROB
system.cpu1.iew.rob_head_stall_class_0::total          419                       # Class of instruction blocking at head of ROB
system.cpu1.iew.robfull                           419                       # number of stalls in the iew stage due to rob being full
system.cpu1.ipc                              0.133083                       # IPC: Instructions Per Cycle
system.cpu1.ipc_total                        0.133083                       # IPC: Total IPC of All Threads
system.cpu1.itb.accesses                            0                       # DTB accesses
system.cpu1.itb.hits                                0                       # DTB hits
system.cpu1.itb.misses                              0                       # DTB misses
system.cpu1.itb.read_accesses                       0                       # DTB read accesses
system.cpu1.itb.read_hits                           0                       # DTB read hits
system.cpu1.itb.read_misses                         0                       # DTB read misses
system.cpu1.itb.write_accesses                      0                       # DTB write accesses
system.cpu1.itb.write_hits                          0                       # DTB write hits
system.cpu1.itb.write_misses                        0                       # DTB write misses
system.cpu1.late_vector.backpressure_stalls            0                       # number of stalls due to backpressure
system.cpu1.late_vector.mesh_input_stalls            0                       # number of stalls due to no input from mesh
system.cpu1.late_vector.pipe_input_stalls         1416                       # number of stalls due to no input from fetch
system.cpu1.late_vector.revec_stalls                0                       # number of stalls due to revec
system.cpu1.numCycles                            1871                       # number of cpu cycles simulated
system.cpu1.numWorkItemsCompleted                   0                       # number of work items this cpu completed
system.cpu1.numWorkItemsStarted                     0                       # number of work items this cpu started
system.cpu1.num_committed_insts                   249                       # Number of Instructions Simulated
system.cpu1.pwrStateResidencyTicks::ON      302279000                       # Cumulative time (in ticks) in various power states
system.cpu1.vector.backpressure_stalls              0                       # number of stalls due to backpressure
system.cpu1.vector.mesh_input_stalls             1192                       # number of stalls due to no input from mesh
system.cpu1.vector.pipe_input_stalls                0                       # number of stalls due to no input from fetch
system.cpu1.vector.revec_stalls                     0                       # number of stalls due to revec
system.cpu2.branchPred.BTBCorrect                   0                       # Number of correct BTB predictions (this stat may not work properly.
system.cpu2.branchPred.BTBHitPct             0.000000                       # BTB Hit Percentage
system.cpu2.branchPred.BTBHits                      0                       # Number of BTB hits
system.cpu2.branchPred.BTBLookups                  54                       # Number of BTB lookups
system.cpu2.branchPred.RASInCorrect                 0                       # Number of incorrect RAS predictions.
system.cpu2.branchPred.condIncorrect                3                       # Number of conditional branches incorrect
system.cpu2.branchPred.condPredicted               35                       # Number of conditional branches predicted
system.cpu2.branchPred.indirectHits                 0                       # Number of indirect target hits.
system.cpu2.branchPred.indirectLookups              4                       # Number of indirect predictor lookups.
system.cpu2.branchPred.indirectMisses               4                       # Number of indirect misses.
system.cpu2.branchPred.lookups                     54                       # Number of BP lookups
system.cpu2.branchPred.usedRAS                      0                       # Number of times the RAS was used to get a target.
system.cpu2.branchPredindirectMispredicted            1                       # Number of mispredicted indirect branches.
system.cpu2.commit.commit_stalls                    0                       # number of stalls in the commit stage due to insufficient credits
system.cpu2.cpi                              7.308593                       # CPI: Cycles Per Instruction
system.cpu2.cpi_total                        7.308593                       # CPI: Total CPI of All Threads
system.cpu2.dtb.accesses                            0                       # DTB accesses
system.cpu2.dtb.hits                                0                       # DTB hits
system.cpu2.dtb.misses                              0                       # DTB misses
system.cpu2.dtb.read_accesses                       0                       # DTB read accesses
system.cpu2.dtb.read_hits                           0                       # DTB read hits
system.cpu2.dtb.read_misses                         0                       # DTB read misses
system.cpu2.dtb.write_accesses                      0                       # DTB write accesses
system.cpu2.dtb.write_hits                          0                       # DTB write hits
system.cpu2.dtb.write_misses                        0                       # DTB write misses
system.cpu2.iew.dep_stall_insts_0::No_OpClass            0      0.00%      0.00% # Class of instruction blocked in Issue due to dependency
system.cpu2.iew.dep_stall_insts_0::IntAlu          149     86.62%     86.62% # Class of instruction blocked in Issue due to dependency
system.cpu2.iew.dep_stall_insts_0::IntMult            9      5.23%     91.86% # Class of instruction blocked in Issue due to dependency
system.cpu2.iew.dep_stall_insts_0::IntDiv            0      0.00%     91.86% # Class of instruction blocked in Issue due to dependency
system.cpu2.iew.dep_stall_insts_0::FloatAdd            0      0.00%     91.86% # Class of instruction blocked in Issue due to dependency
system.cpu2.iew.dep_stall_insts_0::FloatCmp            0      0.00%     91.86% # Class of instruction blocked in Issue due to dependency
system.cpu2.iew.dep_stall_insts_0::FloatCvt            0      0.00%     91.86% # Class of instruction blocked in Issue due to dependency
system.cpu2.iew.dep_stall_insts_0::FloatMult            0      0.00%     91.86% # Class of instruction blocked in Issue due to dependency
system.cpu2.iew.dep_stall_insts_0::FloatMultAcc            0      0.00%     91.86% # Class of instruction blocked in Issue due to dependency
system.cpu2.iew.dep_stall_insts_0::FloatDiv            0      0.00%     91.86% # Class of instruction blocked in Issue due to dependency
system.cpu2.iew.dep_stall_insts_0::FloatMisc            0      0.00%     91.86% # Class of instruction blocked in Issue due to dependency
system.cpu2.iew.dep_stall_insts_0::FloatSqrt            0      0.00%     91.86% # Class of instruction blocked in Issue due to dependency
system.cpu2.iew.dep_stall_insts_0::SimdAdd            0      0.00%     91.86% # Class of instruction blocked in Issue due to dependency
system.cpu2.iew.dep_stall_insts_0::SimdAddAcc            0      0.00%     91.86% # Class of instruction blocked in Issue due to dependency
system.cpu2.iew.dep_stall_insts_0::SimdAlu            0      0.00%     91.86% # Class of instruction blocked in Issue due to dependency
system.cpu2.iew.dep_stall_insts_0::SimdCmp            0      0.00%     91.86% # Class of instruction blocked in Issue due to dependency
system.cpu2.iew.dep_stall_insts_0::SimdCvt            0      0.00%     91.86% # Class of instruction blocked in Issue due to dependency
system.cpu2.iew.dep_stall_insts_0::SimdMisc            0      0.00%     91.86% # Class of instruction blocked in Issue due to dependency
system.cpu2.iew.dep_stall_insts_0::SimdMult            0      0.00%     91.86% # Class of instruction blocked in Issue due to dependency
system.cpu2.iew.dep_stall_insts_0::SimdMultAcc            0      0.00%     91.86% # Class of instruction blocked in Issue due to dependency
system.cpu2.iew.dep_stall_insts_0::SimdShift            0      0.00%     91.86% # Class of instruction blocked in Issue due to dependency
system.cpu2.iew.dep_stall_insts_0::SimdShiftAcc            0      0.00%     91.86% # Class of instruction blocked in Issue due to dependency
system.cpu2.iew.dep_stall_insts_0::SimdDiv            0      0.00%     91.86% # Class of instruction blocked in Issue due to dependency
system.cpu2.iew.dep_stall_insts_0::SimdSqrt            0      0.00%     91.86% # Class of instruction blocked in Issue due to dependency
system.cpu2.iew.dep_stall_insts_0::SimdFloatAdd            0      0.00%     91.86% # Class of instruction blocked in Issue due to dependency
system.cpu2.iew.dep_stall_insts_0::SimdFloatAlu            0      0.00%     91.86% # Class of instruction blocked in Issue due to dependency
system.cpu2.iew.dep_stall_insts_0::SimdFloatCmp            0      0.00%     91.86% # Class of instruction blocked in Issue due to dependency
system.cpu2.iew.dep_stall_insts_0::SimdFloatCvt            0      0.00%     91.86% # Class of instruction blocked in Issue due to dependency
system.cpu2.iew.dep_stall_insts_0::SimdFloatDiv            0      0.00%     91.86% # Class of instruction blocked in Issue due to dependency
system.cpu2.iew.dep_stall_insts_0::SimdFloatMisc            0      0.00%     91.86% # Class of instruction blocked in Issue due to dependency
system.cpu2.iew.dep_stall_insts_0::SimdFloatMult            0      0.00%     91.86% # Class of instruction blocked in Issue due to dependency
system.cpu2.iew.dep_stall_insts_0::SimdFloatMultAcc            0      0.00%     91.86% # Class of instruction blocked in Issue due to dependency
system.cpu2.iew.dep_stall_insts_0::SimdFloatSqrt            0      0.00%     91.86% # Class of instruction blocked in Issue due to dependency
system.cpu2.iew.dep_stall_insts_0::SimdReduceAdd            0      0.00%     91.86% # Class of instruction blocked in Issue due to dependency
system.cpu2.iew.dep_stall_insts_0::SimdReduceAlu            0      0.00%     91.86% # Class of instruction blocked in Issue due to dependency
system.cpu2.iew.dep_stall_insts_0::SimdReduceCmp            0      0.00%     91.86% # Class of instruction blocked in Issue due to dependency
system.cpu2.iew.dep_stall_insts_0::SimdFloatReduceAdd            0      0.00%     91.86% # Class of instruction blocked in Issue due to dependency
system.cpu2.iew.dep_stall_insts_0::SimdFloatReduceCmp            0      0.00%     91.86% # Class of instruction blocked in Issue due to dependency
system.cpu2.iew.dep_stall_insts_0::SimdAes            0      0.00%     91.86% # Class of instruction blocked in Issue due to dependency
system.cpu2.iew.dep_stall_insts_0::SimdAesMix            0      0.00%     91.86% # Class of instruction blocked in Issue due to dependency
system.cpu2.iew.dep_stall_insts_0::SimdSha1Hash            0      0.00%     91.86% # Class of instruction blocked in Issue due to dependency
system.cpu2.iew.dep_stall_insts_0::SimdSha1Hash2            0      0.00%     91.86% # Class of instruction blocked in Issue due to dependency
system.cpu2.iew.dep_stall_insts_0::SimdSha256Hash            0      0.00%     91.86% # Class of instruction blocked in Issue due to dependency
system.cpu2.iew.dep_stall_insts_0::SimdSha256Hash2            0      0.00%     91.86% # Class of instruction blocked in Issue due to dependency
system.cpu2.iew.dep_stall_insts_0::SimdShaSigma2            0      0.00%     91.86% # Class of instruction blocked in Issue due to dependency
system.cpu2.iew.dep_stall_insts_0::SimdShaSigma3            0      0.00%     91.86% # Class of instruction blocked in Issue due to dependency
system.cpu2.iew.dep_stall_insts_0::SimdPredAlu            0      0.00%     91.86% # Class of instruction blocked in Issue due to dependency
system.cpu2.iew.dep_stall_insts_0::MemRead            0      0.00%     91.86% # Class of instruction blocked in Issue due to dependency
system.cpu2.iew.dep_stall_insts_0::MemWrite           14      8.13%     99.99% # Class of instruction blocked in Issue due to dependency
system.cpu2.iew.dep_stall_insts_0::FloatMemRead            0      0.00%     99.99% # Class of instruction blocked in Issue due to dependency
system.cpu2.iew.dep_stall_insts_0::FloatMemWrite            0      0.00%     99.99% # Class of instruction blocked in Issue due to dependency
system.cpu2.iew.dep_stall_insts_0::IprAccess            0      0.00%     99.99% # Class of instruction blocked in Issue due to dependency
system.cpu2.iew.dep_stall_insts_0::InstPrefetch            0      0.00%     99.99% # Class of instruction blocked in Issue due to dependency
system.cpu2.iew.dep_stall_insts_0::total          172                       # Class of instruction blocked in Issue due to dependency
system.cpu2.iew.iew_stalls_control                 66                       # number of stalls in the iew stage due to stalling for control flow insts in pipeline
system.cpu2.iew.iew_stalls_dep                    172                       # number of stalls in the iew stage due to dependency
system.cpu2.iew.iew_stalls_execbusy                 2                       # number of stalls in the iew stage due to exec stage being busy
system.cpu2.iew.iew_stalls_membarrier               0                       # number of stalls in the iew stage due to pending mem barrier
system.cpu2.iew.iew_stalls_revec                    1                       # number of stalls in the iew stage due to stalling for revec in pipeline
system.cpu2.iew.rob_head_stall_class_0::No_OpClass            0      0.00%      0.00% # Class of instruction blocking at head of ROB
system.cpu2.iew.rob_head_stall_class_0::IntAlu            0      0.00%      0.00% # Class of instruction blocking at head of ROB
system.cpu2.iew.rob_head_stall_class_0::IntMult            0      0.00%      0.00% # Class of instruction blocking at head of ROB
system.cpu2.iew.rob_head_stall_class_0::IntDiv            0      0.00%      0.00% # Class of instruction blocking at head of ROB
system.cpu2.iew.rob_head_stall_class_0::FloatAdd            0      0.00%      0.00% # Class of instruction blocking at head of ROB
system.cpu2.iew.rob_head_stall_class_0::FloatCmp            0      0.00%      0.00% # Class of instruction blocking at head of ROB
system.cpu2.iew.rob_head_stall_class_0::FloatCvt            0      0.00%      0.00% # Class of instruction blocking at head of ROB
system.cpu2.iew.rob_head_stall_class_0::FloatMult            0      0.00%      0.00% # Class of instruction blocking at head of ROB
system.cpu2.iew.rob_head_stall_class_0::FloatMultAcc            0      0.00%      0.00% # Class of instruction blocking at head of ROB
system.cpu2.iew.rob_head_stall_class_0::FloatDiv            0      0.00%      0.00% # Class of instruction blocking at head of ROB
system.cpu2.iew.rob_head_stall_class_0::FloatMisc            0      0.00%      0.00% # Class of instruction blocking at head of ROB
system.cpu2.iew.rob_head_stall_class_0::FloatSqrt            0      0.00%      0.00% # Class of instruction blocking at head of ROB
system.cpu2.iew.rob_head_stall_class_0::SimdAdd            0      0.00%      0.00% # Class of instruction blocking at head of ROB
system.cpu2.iew.rob_head_stall_class_0::SimdAddAcc            0      0.00%      0.00% # Class of instruction blocking at head of ROB
system.cpu2.iew.rob_head_stall_class_0::SimdAlu            0      0.00%      0.00% # Class of instruction blocking at head of ROB
system.cpu2.iew.rob_head_stall_class_0::SimdCmp            0      0.00%      0.00% # Class of instruction blocking at head of ROB
system.cpu2.iew.rob_head_stall_class_0::SimdCvt            0      0.00%      0.00% # Class of instruction blocking at head of ROB
system.cpu2.iew.rob_head_stall_class_0::SimdMisc            0      0.00%      0.00% # Class of instruction blocking at head of ROB
system.cpu2.iew.rob_head_stall_class_0::SimdMult            0      0.00%      0.00% # Class of instruction blocking at head of ROB
system.cpu2.iew.rob_head_stall_class_0::SimdMultAcc            0      0.00%      0.00% # Class of instruction blocking at head of ROB
system.cpu2.iew.rob_head_stall_class_0::SimdShift            0      0.00%      0.00% # Class of instruction blocking at head of ROB
system.cpu2.iew.rob_head_stall_class_0::SimdShiftAcc            0      0.00%      0.00% # Class of instruction blocking at head of ROB
system.cpu2.iew.rob_head_stall_class_0::SimdDiv            0      0.00%      0.00% # Class of instruction blocking at head of ROB
system.cpu2.iew.rob_head_stall_class_0::SimdSqrt            0      0.00%      0.00% # Class of instruction blocking at head of ROB
system.cpu2.iew.rob_head_stall_class_0::SimdFloatAdd            0      0.00%      0.00% # Class of instruction blocking at head of ROB
system.cpu2.iew.rob_head_stall_class_0::SimdFloatAlu            0      0.00%      0.00% # Class of instruction blocking at head of ROB
system.cpu2.iew.rob_head_stall_class_0::SimdFloatCmp            0      0.00%      0.00% # Class of instruction blocking at head of ROB
system.cpu2.iew.rob_head_stall_class_0::SimdFloatCvt            0      0.00%      0.00% # Class of instruction blocking at head of ROB
system.cpu2.iew.rob_head_stall_class_0::SimdFloatDiv            0      0.00%      0.00% # Class of instruction blocking at head of ROB
system.cpu2.iew.rob_head_stall_class_0::SimdFloatMisc            0      0.00%      0.00% # Class of instruction blocking at head of ROB
system.cpu2.iew.rob_head_stall_class_0::SimdFloatMult            0      0.00%      0.00% # Class of instruction blocking at head of ROB
system.cpu2.iew.rob_head_stall_class_0::SimdFloatMultAcc            0      0.00%      0.00% # Class of instruction blocking at head of ROB
system.cpu2.iew.rob_head_stall_class_0::SimdFloatSqrt            0      0.00%      0.00% # Class of instruction blocking at head of ROB
system.cpu2.iew.rob_head_stall_class_0::SimdReduceAdd            0      0.00%      0.00% # Class of instruction blocking at head of ROB
system.cpu2.iew.rob_head_stall_class_0::SimdReduceAlu            0      0.00%      0.00% # Class of instruction blocking at head of ROB
system.cpu2.iew.rob_head_stall_class_0::SimdReduceCmp            0      0.00%      0.00% # Class of instruction blocking at head of ROB
system.cpu2.iew.rob_head_stall_class_0::SimdFloatReduceAdd            0      0.00%      0.00% # Class of instruction blocking at head of ROB
system.cpu2.iew.rob_head_stall_class_0::SimdFloatReduceCmp            0      0.00%      0.00% # Class of instruction blocking at head of ROB
system.cpu2.iew.rob_head_stall_class_0::SimdAes            0      0.00%      0.00% # Class of instruction blocking at head of ROB
system.cpu2.iew.rob_head_stall_class_0::SimdAesMix            0      0.00%      0.00% # Class of instruction blocking at head of ROB
system.cpu2.iew.rob_head_stall_class_0::SimdSha1Hash            0      0.00%      0.00% # Class of instruction blocking at head of ROB
system.cpu2.iew.rob_head_stall_class_0::SimdSha1Hash2            0      0.00%      0.00% # Class of instruction blocking at head of ROB
system.cpu2.iew.rob_head_stall_class_0::SimdSha256Hash            0      0.00%      0.00% # Class of instruction blocking at head of ROB
system.cpu2.iew.rob_head_stall_class_0::SimdSha256Hash2            0      0.00%      0.00% # Class of instruction blocking at head of ROB
system.cpu2.iew.rob_head_stall_class_0::SimdShaSigma2            0      0.00%      0.00% # Class of instruction blocking at head of ROB
system.cpu2.iew.rob_head_stall_class_0::SimdShaSigma3            0      0.00%      0.00% # Class of instruction blocking at head of ROB
system.cpu2.iew.rob_head_stall_class_0::SimdPredAlu            0      0.00%      0.00% # Class of instruction blocking at head of ROB
system.cpu2.iew.rob_head_stall_class_0::MemRead            0      0.00%      0.00% # Class of instruction blocking at head of ROB
system.cpu2.iew.rob_head_stall_class_0::MemWrite          295    100.00%    100.00% # Class of instruction blocking at head of ROB
system.cpu2.iew.rob_head_stall_class_0::FloatMemRead            0      0.00%    100.00% # Class of instruction blocking at head of ROB
system.cpu2.iew.rob_head_stall_class_0::FloatMemWrite            0      0.00%    100.00% # Class of instruction blocking at head of ROB
system.cpu2.iew.rob_head_stall_class_0::IprAccess            0      0.00%    100.00% # Class of instruction blocking at head of ROB
system.cpu2.iew.rob_head_stall_class_0::InstPrefetch            0      0.00%    100.00% # Class of instruction blocking at head of ROB
system.cpu2.iew.rob_head_stall_class_0::total          295                       # Class of instruction blocking at head of ROB
system.cpu2.iew.robfull                           295                       # number of stalls in the iew stage due to rob being full
system.cpu2.ipc                              0.136825                       # IPC: Instructions Per Cycle
system.cpu2.ipc_total                        0.136825                       # IPC: Total IPC of All Threads
system.cpu2.itb.accesses                            0                       # DTB accesses
system.cpu2.itb.hits                                0                       # DTB hits
system.cpu2.itb.misses                              0                       # DTB misses
system.cpu2.itb.read_accesses                       0                       # DTB read accesses
system.cpu2.itb.read_hits                           0                       # DTB read hits
system.cpu2.itb.read_misses                         0                       # DTB read misses
system.cpu2.itb.write_accesses                      0                       # DTB write accesses
system.cpu2.itb.write_hits                          0                       # DTB write hits
system.cpu2.itb.write_misses                        0                       # DTB write misses
system.cpu2.late_vector.backpressure_stalls            0                       # number of stalls due to backpressure
system.cpu2.late_vector.mesh_input_stalls            0                       # number of stalls due to no input from mesh
system.cpu2.late_vector.pipe_input_stalls         1322                       # number of stalls due to no input from fetch
system.cpu2.late_vector.revec_stalls                0                       # number of stalls due to revec
system.cpu2.numCycles                            1871                       # number of cpu cycles simulated
system.cpu2.numWorkItemsCompleted                   0                       # number of work items this cpu completed
system.cpu2.numWorkItemsStarted                     0                       # number of work items this cpu started
system.cpu2.num_committed_insts                   256                       # Number of Instructions Simulated
system.cpu2.pwrStateResidencyTicks::ON      302279000                       # Cumulative time (in ticks) in various power states
system.cpu2.vector.backpressure_stalls              0                       # number of stalls due to backpressure
system.cpu2.vector.mesh_input_stalls             1169                       # number of stalls due to no input from mesh
system.cpu2.vector.pipe_input_stalls                0                       # number of stalls due to no input from fetch
system.cpu2.vector.revec_stalls                     0                       # number of stalls due to revec
system.cpu3.branchPred.BTBCorrect                   0                       # Number of correct BTB predictions (this stat may not work properly.
system.cpu3.branchPred.BTBHitPct             0.000000                       # BTB Hit Percentage
system.cpu3.branchPred.BTBHits                      0                       # Number of BTB hits
system.cpu3.branchPred.BTBLookups                  54                       # Number of BTB lookups
system.cpu3.branchPred.RASInCorrect                 0                       # Number of incorrect RAS predictions.
system.cpu3.branchPred.condIncorrect                6                       # Number of conditional branches incorrect
system.cpu3.branchPred.condPredicted               35                       # Number of conditional branches predicted
system.cpu3.branchPred.indirectHits                 0                       # Number of indirect target hits.
system.cpu3.branchPred.indirectLookups              4                       # Number of indirect predictor lookups.
system.cpu3.branchPred.indirectMisses               4                       # Number of indirect misses.
system.cpu3.branchPred.lookups                     57                       # Number of BP lookups
system.cpu3.branchPred.usedRAS                      0                       # Number of times the RAS was used to get a target.
system.cpu3.branchPredindirectMispredicted            1                       # Number of mispredicted indirect branches.
system.cpu3.commit.commit_stalls                    0                       # number of stalls in the commit stage due to insufficient credits
system.cpu3.cpi                              7.337254                       # CPI: Cycles Per Instruction
system.cpu3.cpi_total                        7.337254                       # CPI: Total CPI of All Threads
system.cpu3.dtb.accesses                            0                       # DTB accesses
system.cpu3.dtb.hits                                0                       # DTB hits
system.cpu3.dtb.misses                              0                       # DTB misses
system.cpu3.dtb.read_accesses                       0                       # DTB read accesses
system.cpu3.dtb.read_hits                           0                       # DTB read hits
system.cpu3.dtb.read_misses                         0                       # DTB read misses
system.cpu3.dtb.write_accesses                      0                       # DTB write accesses
system.cpu3.dtb.write_hits                          0                       # DTB write hits
system.cpu3.dtb.write_misses                        0                       # DTB write misses
system.cpu3.iew.dep_stall_insts_0::No_OpClass            0      0.00%      0.00% # Class of instruction blocked in Issue due to dependency
system.cpu3.iew.dep_stall_insts_0::IntAlu          155     93.93%     93.93% # Class of instruction blocked in Issue due to dependency
system.cpu3.iew.dep_stall_insts_0::IntMult            0      0.00%     93.93% # Class of instruction blocked in Issue due to dependency
system.cpu3.iew.dep_stall_insts_0::IntDiv            0      0.00%     93.93% # Class of instruction blocked in Issue due to dependency
system.cpu3.iew.dep_stall_insts_0::FloatAdd            0      0.00%     93.93% # Class of instruction blocked in Issue due to dependency
system.cpu3.iew.dep_stall_insts_0::FloatCmp            0      0.00%     93.93% # Class of instruction blocked in Issue due to dependency
system.cpu3.iew.dep_stall_insts_0::FloatCvt            0      0.00%     93.93% # Class of instruction blocked in Issue due to dependency
system.cpu3.iew.dep_stall_insts_0::FloatMult            0      0.00%     93.93% # Class of instruction blocked in Issue due to dependency
system.cpu3.iew.dep_stall_insts_0::FloatMultAcc            0      0.00%     93.93% # Class of instruction blocked in Issue due to dependency
system.cpu3.iew.dep_stall_insts_0::FloatDiv            0      0.00%     93.93% # Class of instruction blocked in Issue due to dependency
system.cpu3.iew.dep_stall_insts_0::FloatMisc            0      0.00%     93.93% # Class of instruction blocked in Issue due to dependency
system.cpu3.iew.dep_stall_insts_0::FloatSqrt            0      0.00%     93.93% # Class of instruction blocked in Issue due to dependency
system.cpu3.iew.dep_stall_insts_0::SimdAdd            0      0.00%     93.93% # Class of instruction blocked in Issue due to dependency
system.cpu3.iew.dep_stall_insts_0::SimdAddAcc            0      0.00%     93.93% # Class of instruction blocked in Issue due to dependency
system.cpu3.iew.dep_stall_insts_0::SimdAlu            0      0.00%     93.93% # Class of instruction blocked in Issue due to dependency
system.cpu3.iew.dep_stall_insts_0::SimdCmp            0      0.00%     93.93% # Class of instruction blocked in Issue due to dependency
system.cpu3.iew.dep_stall_insts_0::SimdCvt            0      0.00%     93.93% # Class of instruction blocked in Issue due to dependency
system.cpu3.iew.dep_stall_insts_0::SimdMisc            0      0.00%     93.93% # Class of instruction blocked in Issue due to dependency
system.cpu3.iew.dep_stall_insts_0::SimdMult            0      0.00%     93.93% # Class of instruction blocked in Issue due to dependency
system.cpu3.iew.dep_stall_insts_0::SimdMultAcc            0      0.00%     93.93% # Class of instruction blocked in Issue due to dependency
system.cpu3.iew.dep_stall_insts_0::SimdShift            0      0.00%     93.93% # Class of instruction blocked in Issue due to dependency
system.cpu3.iew.dep_stall_insts_0::SimdShiftAcc            0      0.00%     93.93% # Class of instruction blocked in Issue due to dependency
system.cpu3.iew.dep_stall_insts_0::SimdDiv            0      0.00%     93.93% # Class of instruction blocked in Issue due to dependency
system.cpu3.iew.dep_stall_insts_0::SimdSqrt            0      0.00%     93.93% # Class of instruction blocked in Issue due to dependency
system.cpu3.iew.dep_stall_insts_0::SimdFloatAdd            0      0.00%     93.93% # Class of instruction blocked in Issue due to dependency
system.cpu3.iew.dep_stall_insts_0::SimdFloatAlu            0      0.00%     93.93% # Class of instruction blocked in Issue due to dependency
system.cpu3.iew.dep_stall_insts_0::SimdFloatCmp            0      0.00%     93.93% # Class of instruction blocked in Issue due to dependency
system.cpu3.iew.dep_stall_insts_0::SimdFloatCvt            0      0.00%     93.93% # Class of instruction blocked in Issue due to dependency
system.cpu3.iew.dep_stall_insts_0::SimdFloatDiv            0      0.00%     93.93% # Class of instruction blocked in Issue due to dependency
system.cpu3.iew.dep_stall_insts_0::SimdFloatMisc            0      0.00%     93.93% # Class of instruction blocked in Issue due to dependency
system.cpu3.iew.dep_stall_insts_0::SimdFloatMult            0      0.00%     93.93% # Class of instruction blocked in Issue due to dependency
system.cpu3.iew.dep_stall_insts_0::SimdFloatMultAcc            0      0.00%     93.93% # Class of instruction blocked in Issue due to dependency
system.cpu3.iew.dep_stall_insts_0::SimdFloatSqrt            0      0.00%     93.93% # Class of instruction blocked in Issue due to dependency
system.cpu3.iew.dep_stall_insts_0::SimdReduceAdd            0      0.00%     93.93% # Class of instruction blocked in Issue due to dependency
system.cpu3.iew.dep_stall_insts_0::SimdReduceAlu            0      0.00%     93.93% # Class of instruction blocked in Issue due to dependency
system.cpu3.iew.dep_stall_insts_0::SimdReduceCmp            0      0.00%     93.93% # Class of instruction blocked in Issue due to dependency
system.cpu3.iew.dep_stall_insts_0::SimdFloatReduceAdd            0      0.00%     93.93% # Class of instruction blocked in Issue due to dependency
system.cpu3.iew.dep_stall_insts_0::SimdFloatReduceCmp            0      0.00%     93.93% # Class of instruction blocked in Issue due to dependency
system.cpu3.iew.dep_stall_insts_0::SimdAes            0      0.00%     93.93% # Class of instruction blocked in Issue due to dependency
system.cpu3.iew.dep_stall_insts_0::SimdAesMix            0      0.00%     93.93% # Class of instruction blocked in Issue due to dependency
system.cpu3.iew.dep_stall_insts_0::SimdSha1Hash            0      0.00%     93.93% # Class of instruction blocked in Issue due to dependency
system.cpu3.iew.dep_stall_insts_0::SimdSha1Hash2            0      0.00%     93.93% # Class of instruction blocked in Issue due to dependency
system.cpu3.iew.dep_stall_insts_0::SimdSha256Hash            0      0.00%     93.93% # Class of instruction blocked in Issue due to dependency
system.cpu3.iew.dep_stall_insts_0::SimdSha256Hash2            0      0.00%     93.93% # Class of instruction blocked in Issue due to dependency
system.cpu3.iew.dep_stall_insts_0::SimdShaSigma2            0      0.00%     93.93% # Class of instruction blocked in Issue due to dependency
system.cpu3.iew.dep_stall_insts_0::SimdShaSigma3            0      0.00%     93.93% # Class of instruction blocked in Issue due to dependency
system.cpu3.iew.dep_stall_insts_0::SimdPredAlu            0      0.00%     93.93% # Class of instruction blocked in Issue due to dependency
system.cpu3.iew.dep_stall_insts_0::MemRead            0      0.00%     93.93% # Class of instruction blocked in Issue due to dependency
system.cpu3.iew.dep_stall_insts_0::MemWrite           10      6.06%     99.99% # Class of instruction blocked in Issue due to dependency
system.cpu3.iew.dep_stall_insts_0::FloatMemRead            0      0.00%     99.99% # Class of instruction blocked in Issue due to dependency
system.cpu3.iew.dep_stall_insts_0::FloatMemWrite            0      0.00%     99.99% # Class of instruction blocked in Issue due to dependency
system.cpu3.iew.dep_stall_insts_0::IprAccess            0      0.00%     99.99% # Class of instruction blocked in Issue due to dependency
system.cpu3.iew.dep_stall_insts_0::InstPrefetch            0      0.00%     99.99% # Class of instruction blocked in Issue due to dependency
system.cpu3.iew.dep_stall_insts_0::total          165                       # Class of instruction blocked in Issue due to dependency
system.cpu3.iew.iew_stalls_control                 66                       # number of stalls in the iew stage due to stalling for control flow insts in pipeline
system.cpu3.iew.iew_stalls_dep                    165                       # number of stalls in the iew stage due to dependency
system.cpu3.iew.iew_stalls_execbusy                 1                       # number of stalls in the iew stage due to exec stage being busy
system.cpu3.iew.iew_stalls_membarrier               0                       # number of stalls in the iew stage due to pending mem barrier
system.cpu3.iew.iew_stalls_revec                    1                       # number of stalls in the iew stage due to stalling for revec in pipeline
system.cpu3.iew.rob_head_stall_class_0::No_OpClass            0      0.00%      0.00% # Class of instruction blocking at head of ROB
system.cpu3.iew.rob_head_stall_class_0::IntAlu            0      0.00%      0.00% # Class of instruction blocking at head of ROB
system.cpu3.iew.rob_head_stall_class_0::IntMult            0      0.00%      0.00% # Class of instruction blocking at head of ROB
system.cpu3.iew.rob_head_stall_class_0::IntDiv            0      0.00%      0.00% # Class of instruction blocking at head of ROB
system.cpu3.iew.rob_head_stall_class_0::FloatAdd            0      0.00%      0.00% # Class of instruction blocking at head of ROB
system.cpu3.iew.rob_head_stall_class_0::FloatCmp            0      0.00%      0.00% # Class of instruction blocking at head of ROB
system.cpu3.iew.rob_head_stall_class_0::FloatCvt            0      0.00%      0.00% # Class of instruction blocking at head of ROB
system.cpu3.iew.rob_head_stall_class_0::FloatMult            0      0.00%      0.00% # Class of instruction blocking at head of ROB
system.cpu3.iew.rob_head_stall_class_0::FloatMultAcc            0      0.00%      0.00% # Class of instruction blocking at head of ROB
system.cpu3.iew.rob_head_stall_class_0::FloatDiv            0      0.00%      0.00% # Class of instruction blocking at head of ROB
system.cpu3.iew.rob_head_stall_class_0::FloatMisc            0      0.00%      0.00% # Class of instruction blocking at head of ROB
system.cpu3.iew.rob_head_stall_class_0::FloatSqrt            0      0.00%      0.00% # Class of instruction blocking at head of ROB
system.cpu3.iew.rob_head_stall_class_0::SimdAdd            0      0.00%      0.00% # Class of instruction blocking at head of ROB
system.cpu3.iew.rob_head_stall_class_0::SimdAddAcc            0      0.00%      0.00% # Class of instruction blocking at head of ROB
system.cpu3.iew.rob_head_stall_class_0::SimdAlu            0      0.00%      0.00% # Class of instruction blocking at head of ROB
system.cpu3.iew.rob_head_stall_class_0::SimdCmp            0      0.00%      0.00% # Class of instruction blocking at head of ROB
system.cpu3.iew.rob_head_stall_class_0::SimdCvt            0      0.00%      0.00% # Class of instruction blocking at head of ROB
system.cpu3.iew.rob_head_stall_class_0::SimdMisc            0      0.00%      0.00% # Class of instruction blocking at head of ROB
system.cpu3.iew.rob_head_stall_class_0::SimdMult            0      0.00%      0.00% # Class of instruction blocking at head of ROB
system.cpu3.iew.rob_head_stall_class_0::SimdMultAcc            0      0.00%      0.00% # Class of instruction blocking at head of ROB
system.cpu3.iew.rob_head_stall_class_0::SimdShift            0      0.00%      0.00% # Class of instruction blocking at head of ROB
system.cpu3.iew.rob_head_stall_class_0::SimdShiftAcc            0      0.00%      0.00% # Class of instruction blocking at head of ROB
system.cpu3.iew.rob_head_stall_class_0::SimdDiv            0      0.00%      0.00% # Class of instruction blocking at head of ROB
system.cpu3.iew.rob_head_stall_class_0::SimdSqrt            0      0.00%      0.00% # Class of instruction blocking at head of ROB
system.cpu3.iew.rob_head_stall_class_0::SimdFloatAdd            0      0.00%      0.00% # Class of instruction blocking at head of ROB
system.cpu3.iew.rob_head_stall_class_0::SimdFloatAlu            0      0.00%      0.00% # Class of instruction blocking at head of ROB
system.cpu3.iew.rob_head_stall_class_0::SimdFloatCmp            0      0.00%      0.00% # Class of instruction blocking at head of ROB
system.cpu3.iew.rob_head_stall_class_0::SimdFloatCvt            0      0.00%      0.00% # Class of instruction blocking at head of ROB
system.cpu3.iew.rob_head_stall_class_0::SimdFloatDiv            0      0.00%      0.00% # Class of instruction blocking at head of ROB
system.cpu3.iew.rob_head_stall_class_0::SimdFloatMisc            0      0.00%      0.00% # Class of instruction blocking at head of ROB
system.cpu3.iew.rob_head_stall_class_0::SimdFloatMult            0      0.00%      0.00% # Class of instruction blocking at head of ROB
system.cpu3.iew.rob_head_stall_class_0::SimdFloatMultAcc            0      0.00%      0.00% # Class of instruction blocking at head of ROB
system.cpu3.iew.rob_head_stall_class_0::SimdFloatSqrt            0      0.00%      0.00% # Class of instruction blocking at head of ROB
system.cpu3.iew.rob_head_stall_class_0::SimdReduceAdd            0      0.00%      0.00% # Class of instruction blocking at head of ROB
system.cpu3.iew.rob_head_stall_class_0::SimdReduceAlu            0      0.00%      0.00% # Class of instruction blocking at head of ROB
system.cpu3.iew.rob_head_stall_class_0::SimdReduceCmp            0      0.00%      0.00% # Class of instruction blocking at head of ROB
system.cpu3.iew.rob_head_stall_class_0::SimdFloatReduceAdd            0      0.00%      0.00% # Class of instruction blocking at head of ROB
[...]
system.network.routers5.pwrStateResidencyTicks::UNDEFINED    302279000                       # Cumulative time (in ticks) in various power states
system.network.routers5.sw_input_arbiter_activity          198                      
system.network.routers5.sw_output_arbiter_activity          198                      
system.ruby.IFETCH.L1Cache.hit_type_mach_latency_hist_seqr::bucket_size           32                      
system.ruby.IFETCH.L1Cache.hit_type_mach_latency_hist_seqr::max_bucket          319                      
system.ruby.IFETCH.L1Cache.hit_type_mach_latency_hist_seqr::samples           54                      
system.ruby.IFETCH.L1Cache.hit_type_mach_latency_hist_seqr::mean    27.240740                      
system.ruby.IFETCH.L1Cache.hit_type_mach_latency_hist_seqr::gmean     2.494705                      
system.ruby.IFETCH.L1Cache.hit_type_mach_latency_hist_seqr::stdev    56.989219                      
system.ruby.IFETCH.L1Cache.hit_type_mach_latency_hist_seqr |          44     81.48%     81.48% |           0      0.00%     81.48% |           0      0.00%     81.48% |           3      5.55%     87.03% |           1      1.85%     88.88% |           6     11.11%     99.99% |           0      0.00%     99.99% |           0      0.00%     99.99% |           0      0.00%     99.99% |           0      0.00%     99.99%
system.ruby.IFETCH.L1Cache.hit_type_mach_latency_hist_seqr::total           54                      
system.ruby.IFETCH.hit_latency_hist_seqr::bucket_size           32                      
system.ruby.IFETCH.hit_latency_hist_seqr::max_bucket          319                      
system.ruby.IFETCH.hit_latency_hist_seqr::samples           54                      
system.ruby.IFETCH.hit_latency_hist_seqr::mean    27.240740                      
system.ruby.IFETCH.hit_latency_hist_seqr::gmean     2.494705                      
system.ruby.IFETCH.hit_latency_hist_seqr::stdev    56.989219                      
system.ruby.IFETCH.hit_latency_hist_seqr |          44     81.48%     81.48% |           0      0.00%     81.48% |           0      0.00%     81.48% |           3      5.55%     87.03% |           1      1.85%     88.88% |           6     11.11%     99.99% |           0      0.00%     99.99% |           0      0.00%     99.99% |           0      0.00%     99.99% |           0      0.00%     99.99%
system.ruby.IFETCH.hit_latency_hist_seqr::total           54                      
system.ruby.IFETCH.latency_hist_seqr::bucket_size           32                      
system.ruby.IFETCH.latency_hist_seqr::max_bucket          319                      
system.ruby.IFETCH.latency_hist_seqr::samples           54                      
system.ruby.IFETCH.latency_hist_seqr::mean    27.240740                      
system.ruby.IFETCH.latency_hist_seqr::gmean     2.494705                      
system.ruby.IFETCH.latency_hist_seqr::stdev    56.989219                      
system.ruby.IFETCH.latency_hist_seqr     |          44     81.48%     81.48% |           0      0.00%     81.48% |           0      0.00%     81.48% |           3      5.55%     87.03% |           1      1.85%     88.88% |           6     11.11%     99.99% |           0      0.00%     99.99% |           0      0.00%     99.99% |           0      0.00%     99.99% |           0      0.00%     99.99%
system.ruby.IFETCH.latency_hist_seqr::total           54                      
system.ruby.L1Cache.hit_mach_latency_hist_seqr::bucket_size           32                      
system.ruby.L1Cache.hit_mach_latency_hist_seqr::max_bucket          319                      
system.ruby.L1Cache.hit_mach_latency_hist_seqr::samples           54                      
system.ruby.L1Cache.hit_mach_latency_hist_seqr::mean    27.240740                      
system.ruby.L1Cache.hit_mach_latency_hist_seqr::gmean     2.494705                      
system.ruby.L1Cache.hit_mach_latency_hist_seqr::stdev    56.989219                      
system.ruby.L1Cache.hit_mach_latency_hist_seqr |          44     81.48%     81.48% |           0      0.00%     81.48% |           0      0.00%     81.48% |           3      5.55%     87.03% |           1      1.85%     88.88% |           6     11.11%     99.99% |           0      0.00%     99.99% |           0      0.00%     99.99% |           0      0.00%     99.99% |           0      0.00%     99.99%
system.ruby.L1Cache.hit_mach_latency_hist_seqr::total           54                      
system.ruby.L1Cache_Controller.Data      |           6     59.99%     59.99% |           1      9.99%     69.99% |           2     19.99%     89.99% |           1      9.99%     99.99%
system.ruby.L1Cache_Controller.Data::total           10                      
system.ruby.L1Cache_Controller.Fetch     |          41     78.84%     78.84% |           3      5.76%     84.61% |           4      7.69%     92.30% |           4      7.69%     99.99%
system.ruby.L1Cache_Controller.Fetch::total           52                      
system.ruby.L1Cache_Controller.I.Data    |           6     59.99%     59.99% |           1      9.99%     69.99% |           2     19.99%     89.99% |           1      9.99%     99.99%
system.ruby.L1Cache_Controller.I.Data::total           10                      
system.ruby.L1Cache_Controller.I.Fetch   |           6     75.00%     75.00% |           0      0.00%     75.00% |           1     12.50%     87.50% |           1     12.50%    100.00%
system.ruby.L1Cache_Controller.I.Fetch::total            8                      
system.ruby.L1Cache_Controller.Repl      |           5    100.00%    100.00% |           0      0.00%    100.00% |           0      0.00%    100.00% |           0      0.00%    100.00%
system.ruby.L1Cache_Controller.Repl::total            5                      
system.ruby.L1Cache_Controller.V.Fetch   |          35     79.54%     79.54% |           3      6.81%     86.36% |           3      6.81%     93.18% |           3      6.81%     99.99%
system.ruby.L1Cache_Controller.V.Fetch::total           44                      
system.ruby.L1Cache_Controller.V.Repl    |           5    100.00%    100.00% |           0      0.00%    100.00% |           0      0.00%    100.00% |           0      0.00%    100.00%
system.ruby.L1Cache_Controller.V.Repl::total            5                      
system.ruby.L2Cache_Controller.I.READ    |           5    100.00%    100.00% |           0      0.00%    100.00%
system.ruby.L2Cache_Controller.I.READ::total            5                      
system.ruby.L2Cache_Controller.I.WRITE   |           3     50.00%     50.00% |           3     50.00%    100.00%
system.ruby.L2Cache_Controller.I.WRITE::total            6                      
system.ruby.L2Cache_Controller.IM.Memory_Data |           3     50.00%     50.00% |           3     50.00%    100.00%
system.ruby.L2Cache_Controller.IM.Memory_Data::total            6                      
system.ruby.L2Cache_Controller.IM.READ   |           7    100.00%    100.00% |           0      0.00%    100.00%
system.ruby.L2Cache_Controller.IM.READ::total            7                      
system.ruby.L2Cache_Controller.IV.Memory_Data |           5    100.00%    100.00% |           0      0.00%    100.00%
system.ruby.L2Cache_Controller.IV.Memory_Data::total            5                      
system.ruby.L2Cache_Controller.IV.READ   |           2    100.00%    100.00% |           0      0.00%    100.00%
system.ruby.L2Cache_Controller.IV.READ::total            2                      
system.ruby.L2Cache_Controller.M.READ    |          27     55.10%     55.10% |          22     44.89%     99.99%
system.ruby.L2Cache_Controller.M.READ::total           49                      
system.ruby.L2Cache_Controller.M.VREAD0  |           8     50.00%     50.00% |           8     50.00%    100.00%
system.ruby.L2Cache_Controller.M.VREAD0::total           16                      
system.ruby.L2Cache_Controller.M.VREAD1  |          16     50.00%     50.00% |          16     50.00%    100.00%
system.ruby.L2Cache_Controller.M.VREAD1::total           32                      
system.ruby.L2Cache_Controller.M.VREAD2  |           8     50.00%     50.00% |           8     50.00%    100.00%
system.ruby.L2Cache_Controller.M.VREAD2::total           16                      
system.ruby.L2Cache_Controller.M.WRITE   |          36     58.06%     58.06% |          26     41.93%     99.99%
system.ruby.L2Cache_Controller.M.WRITE::total           62                      
system.ruby.L2Cache_Controller.Memory_Data |           8     72.72%     72.72% |           3     27.27%     99.99%
system.ruby.L2Cache_Controller.Memory_Data::total           11                      
system.ruby.L2Cache_Controller.READ      |          46     67.64%     67.64% |          22     32.35%     99.99%
system.ruby.L2Cache_Controller.READ::total           68                      
system.ruby.L2Cache_Controller.V.READ    |           5    100.00%    100.00% |           0      0.00%    100.00%
system.ruby.L2Cache_Controller.V.READ::total            5                      
system.ruby.L2Cache_Controller.VREAD0    |           8     50.00%     50.00% |           8     50.00%    100.00%
system.ruby.L2Cache_Controller.VREAD0::total           16                      
system.ruby.L2Cache_Controller.VREAD1    |          16     50.00%     50.00% |          16     50.00%    100.00%
system.ruby.L2Cache_Controller.VREAD1::total           32                      
system.ruby.L2Cache_Controller.VREAD2    |           8     50.00%     50.00% |           8     50.00%    100.00%
system.ruby.L2Cache_Controller.VREAD2::total           16                      
system.ruby.L2Cache_Controller.WRITE     |          39     57.35%     57.35% |          29     42.64%     99.99%
system.ruby.L2Cache_Controller.WRITE::total           68                      
system.ruby.hit_latency_hist_seqr::bucket_size           32                      
system.ruby.hit_latency_hist_seqr::max_bucket          319                      
system.ruby.hit_latency_hist_seqr::samples           54                      
system.ruby.hit_latency_hist_seqr::mean     27.240740                      
system.ruby.hit_latency_hist_seqr::gmean     2.494705                      
system.ruby.hit_latency_hist_seqr::stdev    56.989219                      
system.ruby.hit_latency_hist_seqr        |          44     81.48%     81.48% |           0      0.00%     81.48% |           0      0.00%     81.48% |           3      5.55%     87.03% |           1      1.85%     88.88% |           6     11.11%     99.99% |           0      0.00%     99.99% |           0      0.00%     99.99% |           0      0.00%     99.99% |           0      0.00%     99.99%
system.ruby.hit_latency_hist_seqr::total           54                      
system.ruby.latency_hist_seqr::bucket_size           32                      
system.ruby.latency_hist_seqr::max_bucket          319                      
system.ruby.latency_hist_seqr::samples             54                      
system.ruby.latency_hist_seqr::mean         27.240740                      
system.ruby.latency_hist_seqr::gmean         2.494705                      
system.ruby.latency_hist_seqr::stdev        56.989219                      
system.ruby.latency_hist_seqr            |          44     81.48%     81.48% |           0      0.00%     81.48% |           0      0.00%     81.48% |           3      5.55%     87.03% |           1      1.85%     88.88% |           6     11.11%     99.99% |           0      0.00%     99.99% |           0      0.00%     99.99% |           0      0.00%     99.99% |           0      0.00%     99.99%
system.ruby.latency_hist_seqr::total               54                      
system.ruby.outstanding_req_hist_seqr::bucket_size            1                      
system.ruby.outstanding_req_hist_seqr::max_bucket            9                      
system.ruby.outstanding_req_hist_seqr::samples           52                      
system.ruby.outstanding_req_hist_seqr::mean     1.019230                      
system.ruby.outstanding_req_hist_seqr::gmean     1.013418                      
system.ruby.outstanding_req_hist_seqr::stdev     0.138675                      
system.ruby.outstanding_req_hist_seqr    |           0      0.00%      0.00% |          51     98.07%     98.07% |           1      1.92%     99.99% |           0      0.00%     99.99% |           0      0.00%     99.99% |           0      0.00%     99.99% |           0      0.00%     99.99% |           0      0.00%     99.99% |           0      0.00%     99.99% |           0      0.00%     99.99%
system.ruby.outstanding_req_hist_seqr::total           52                      
system.ruby.pwrStateResidencyTicks::UNDEFINED    302279000                       # Cumulative time (in ticks) in various power states
system.ruby.sys_port_proxy.pwrStateResidencyTicks::UNDEFINED    302279000                       # Cumulative time (in ticks) in various power states
system.scratchpads0.local_accesses                 16                       # Number of local accesses completed
system.scratchpads0.local_loads                    16                       # Number of loads completed by the local core
system.scratchpads0.local_stores                    0                       # Number of stores completed by the local core
system.scratchpads0.memReqBuffer.avg_buf_msgs     0.022982                       # Average number of messages in buffer
system.scratchpads0.memReqBuffer.avg_stall_time         1000                       # Average number of cycles messages are stalled in this MB
system.scratchpads0.memRespBuffer.avg_buf_msgs     0.022982                       # Average number of messages in buffer
system.scratchpads0.memRespBuffer.avg_stall_time 10940.138460                       # Average number of cycles messages are stalled in this MB
system.scratchpads0.pwrStateResidencyTicks::UNDEFINED    302279000                       # Cumulative time (in ticks) in various power states
system.scratchpads0.remote_accesses                16                       # Number of remote accesses completed
system.scratchpads0.remote_loads                    0                       # Number of loads completed by a remote core
system.scratchpads0.remote_stores                  16                       # Number of stores completed by a remote core
system.scratchpads0.total_accesses                 32                       # Number of accesses completed
system.scratchpads1.local_accesses                 16                       # Number of local accesses completed
system.scratchpads1.local_loads                    16                       # Number of loads completed by the local core
system.scratchpads1.local_stores                    0                       # Number of stores completed by the local core
system.scratchpads1.memReqBuffer.avg_buf_msgs     0.016034                       # Average number of messages in buffer
system.scratchpads1.memReqBuffer.avg_stall_time         1000                       # Average number of cycles messages are stalled in this MB
system.scratchpads1.memRespBuffer.avg_buf_msgs     0.024585                       # Average number of messages in buffer
system.scratchpads1.memRespBuffer.avg_stall_time 11746.658606                       # Average number of cycles messages are stalled in this MB
system.scratchpads1.pwrStateResidencyTicks::UNDEFINED    302279000                       # Cumulative time (in ticks) in various power states
system.scratchpads1.remoteReqBuffer.avg_stall_time         8000                       # Average number of cycles messages are stalled in this MB
system.scratchpads1.remoteRespBuffer.avg_stall_time         1000                       # Average number of cycles messages are stalled in this MB
system.scratchpads1.remote_accesses                16                       # Number of remote accesses completed
system.scratchpads1.remote_loads                    0                       # Number of loads completed by a remote core
system.scratchpads1.remote_stores                  16                       # Number of stores completed by a remote core
system.scratchpads1.total_accesses                 32                       # Number of accesses completed
system.scratchpads2.local_accesses                 16                       # Number of local accesses completed
system.scratchpads2.local_loads                    16                       # Number of loads completed by the local core
system.scratchpads2.local_stores                    0                       # Number of stores completed by the local core
system.scratchpads2.memReqBuffer.avg_buf_msgs     0.016034                       # Average number of messages in buffer
system.scratchpads2.memReqBuffer.avg_stall_time         1000                       # Average number of cycles messages are stalled in this MB
system.scratchpads2.memRespBuffer.avg_buf_msgs     0.024585                       # Average number of messages in buffer
system.scratchpads2.memRespBuffer.avg_stall_time  9614.110307                       # Average number of cycles messages are stalled in this MB
system.scratchpads2.pwrStateResidencyTicks::UNDEFINED    302279000                       # Cumulative time (in ticks) in various power states
system.scratchpads2.remoteReqBuffer.avg_stall_time         8000                       # Average number of cycles messages are stalled in this MB
system.scratchpads2.remoteRespBuffer.avg_stall_time         1000                       # Average number of cycles messages are stalled in this MB
system.scratchpads2.remote_accesses                16                       # Number of remote accesses completed
system.scratchpads2.remote_loads                    0                       # Number of loads completed by a remote core
system.scratchpads2.remote_stores                  16                       # Number of stores completed by a remote core
system.scratchpads2.total_accesses                 32                       # Number of accesses completed
system.scratchpads3.local_accesses                 16                       # Number of local accesses completed
system.scratchpads3.local_loads                    16                       # Number of loads completed by the local core
system.scratchpads3.local_stores                    0                       # Number of stores completed by the local core
system.scratchpads3.memReqBuffer.avg_buf_msgs     0.016568                       # Average number of messages in buffer
system.scratchpads3.memReqBuffer.avg_stall_time         1000                       # Average number of cycles messages are stalled in this MB
system.scratchpads3.memRespBuffer.avg_buf_msgs     0.025120                       # Average number of messages in buffer
system.scratchpads3.memRespBuffer.avg_stall_time 10374.130211                       # Average number of cycles messages are stalled in this MB
system.scratchpads3.pwrStateResidencyTicks::UNDEFINED    302279000                       # Cumulative time (in ticks) in various power states
system.scratchpads3.remoteReqBuffer.avg_stall_time        10000                       # Average number of cycles messages are stalled in this MB
system.scratchpads3.remoteRespBuffer.avg_stall_time         1000                       # Average number of cycles messages are stalled in this MB
system.scratchpads3.remote_accesses                16                       # Number of remote accesses completed
system.scratchpads3.remote_loads                    0                       # Number of loads completed by a remote core
system.scratchpads3.remote_stores                  16                       # Number of stores completed by a remote core
system.scratchpads3.total_accesses                 32                       # Number of accesses completed
system.voltage_domain.voltage                       1                       # Voltage in Volts

---------- End Simulation Statistics   ----------
